          35
 sphere cut out from bulk 
C    -2.5   -0.3   -1.0
C    -1.7   -1.0    0.1
O    -0.9   -1.9   -0.2
H    -1.9    0.4   -1.5
H    -3.4    0.3   -0.6
H    -2.8   -1.1   -1.7
N    -1.9   -0.6    1.4
C    -2.5    0.6    2.0
C    -4.0    0.4    2.2
O    -4.7    1.3    2.7
H    -1.2   -1.1    2.0
H    -2.2    0.5    3.1
C    -2.0    1.9    1.4
C    -2.6    3.2    1.9
C    -2.6    3.5    3.4
N    -1.6    2.8    4.2
C    -2.0    2.0    5.3
N    -3.3    1.6    5.5
N    -1.0    1.8    6.2
H    -2.1    1.9    0.3
H    -0.9    1.9    1.6
H    -3.6    3.4    1.5
H    -2.0    4.0    1.4
H    -3.6    3.3    3.8
H    -2.5    4.6    3.6
H    -0.7    3.1    4.3
H    -3.5    1.0    6.2
H    -3.9    1.5    4.6
H    -1.3    1.2    6.9
N    -4.6   -0.8    1.7
C    -6.0   -1.1    1.9
H    -3.9   -1.4    1.4
H    -6.4   -1.3    0.9
H    -6.5   -0.2    2.3
H    -6.1   -1.9    2.5
