          35
 sphere cut out from bulk 
C     0.1   -0.2    0.3
C    -0.5   -0.2    1.7
O     0.0   -0.9    2.6
H    -0.7    0.2   -0.4
H     0.4   -1.1    0.0
H     0.9    0.5    0.3
N    -1.6    0.6    1.9
C    -2.1    0.9    3.3
C    -0.9    1.3    4.2
O    -0.1    2.1    3.8
H    -1.8    1.2    1.2
H    -2.6    1.8    3.2
C    -3.1   -0.1    3.8
C    -2.7   -1.6    3.9
C    -3.8   -2.5    4.4
N    -5.0   -2.5    3.5
C    -6.2   -3.1    4.0
N    -7.1   -3.1    2.9
N    -6.5   -3.6    5.1
H    -4.0   -0.0    3.2
H    -3.4    0.2    4.8
H    -1.8   -1.8    4.4
H    -2.5   -2.0    2.8
H    -4.1   -2.2    5.4
H    -3.4   -3.5    4.5
H    -4.8   -2.6    2.6
H    -8.0   -3.4    3.3
H    -7.2   -2.2    2.4
H    -5.7   -3.6    5.7
N    -0.8    0.7    5.4
C     0.3    1.0    6.3
H    -1.4   -0.1    5.6
H    -0.0    0.8    7.4
H     0.6    2.0    6.2
H     1.1    0.3    6.1
