          35
 sphere cut out from bulk 
C    -0.4   -1.4   -0.2
C     0.1   -0.8    1.1
O     1.2   -0.7    1.4
H    -1.0   -2.3   -0.1
H     0.5   -1.6   -0.8
H    -1.0   -0.7   -0.8
N    -0.9   -0.3    2.0
C    -2.4   -0.4    2.0
C    -2.8   -1.8    2.2
O    -2.7   -2.3    3.3
H    -0.5   -0.0    2.9
H    -2.6    0.1    2.9
C    -3.0    0.6    0.9
C    -4.5    0.8    1.2
C    -5.1    1.8    0.1
N    -5.1    1.2   -1.2
C    -6.0    0.2   -1.6
N    -5.6   -0.3   -2.9
N    -6.9   -0.3   -1.0
H    -2.9    0.2   -0.1
H    -2.4    1.5    0.9
H    -4.6    1.3    2.1
H    -5.0   -0.1    1.2
H    -4.6    2.7    0.1
H    -6.2    2.0    0.4
H    -4.3    1.3   -1.7
H    -5.4    0.4   -3.6
H    -6.3   -0.9   -3.2
H    -7.0    0.0   -0.1
N    -3.4   -2.6    1.2
C    -3.9   -2.3   -0.2
H    -3.6   -3.5    1.6
H    -3.1   -1.7   -0.8
H    -4.8   -1.8   -0.2
H    -4.0   -3.3   -0.7
