          35
 sphere cut out from bulk 
C    -0.1    0.0    0.8
C    -0.3    0.4    2.3
O     0.6    0.5    3.1
H     0.9   -0.2    0.7
H    -0.4    0.8    0.2
H    -0.7   -0.9    0.6
N    -1.6    0.7    2.7
C    -2.9    0.5    1.9
C    -3.8    1.7    2.2
O    -4.8    1.5    3.0
H    -1.8    0.8    3.7
H    -2.6    0.6    0.8
C    -3.6   -0.8    2.1
C    -4.8   -1.1    1.1
C    -5.9   -1.9    1.8
N    -6.5   -1.0    2.9
C    -7.0   -1.6    4.1
N    -7.4   -2.9    4.0
N    -7.0   -1.0    5.2
H    -3.9   -0.9    3.1
H    -2.8   -1.6    2.0
H    -4.4   -1.6    0.3
H    -5.2   -0.1    0.8
H    -5.5   -2.8    2.2
H    -6.7   -2.1    1.0
H    -6.1   -0.1    3.0
H    -7.9   -3.2    4.8
H    -7.9   -3.1    3.1
H    -6.5   -0.1    5.2
N    -3.5    2.9    1.7
C    -2.3    3.3    0.9
H    -4.1    3.6    2.1
H    -1.4    3.2    1.5
H    -2.5    4.3    0.6
H    -2.3    2.7    0.0
