          35
 sphere cut out from bulk 
C    -0.5   -0.7    0.1
C    -0.7   -0.9    1.5
O    -0.8   -2.0    2.0
H     0.3   -1.3   -0.3
H    -0.4    0.4   -0.2
H    -1.4   -1.1   -0.5
N    -0.6    0.2    2.3
C    -0.8    0.2    3.8
C    -2.3    0.6    4.1
O    -2.6    1.8    3.9
H    -0.7    1.1    1.9
H    -0.6   -0.9    4.0
C     0.2    1.1    4.5
C     0.1    1.1    6.0
C     0.3   -0.2    6.7
N     0.4   -0.2    8.1
C     1.6    0.2    8.8
N     1.3    0.4   10.2
N     2.7    0.5    8.3
H     0.0    2.1    4.1
H     1.2    0.8    4.2
H    -0.9    1.5    6.3
H     0.8    1.8    6.4
H     1.3   -0.7    6.3
H    -0.4   -1.0    6.4
H    -0.5    0.0    8.6
H     2.2    0.6   10.6
H     0.8   -0.4   10.6
H     2.7    0.5    7.3
N    -3.1   -0.3    4.5
C    -2.9   -1.8    4.7
H    -4.1    0.0    4.7
H    -3.9   -2.3    4.5
H    -2.5   -2.0    5.6
H    -2.2   -2.2    3.9
