          35
 sphere cut out from bulk 
C    -0.0    0.3    0.0
C     0.1    0.2    1.5
O     1.1    0.3    2.1
H     1.0    0.4   -0.4
H    -0.6    1.2   -0.3
H    -0.5   -0.6   -0.4
N    -1.1    0.0    2.2
C    -2.5   -0.0    1.6
C    -3.1    1.3    1.1
O    -4.0    1.2    0.3
H    -1.0   -0.0    3.2
H    -2.5   -0.7    0.8
C    -3.5   -0.7    2.6
C    -3.7    0.1    3.9
C    -4.8   -0.6    4.8
N    -6.1   -0.7    4.2
C    -6.6   -1.9    3.7
N    -7.9   -1.8    3.2
N    -5.9   -3.0    3.8
H    -3.1   -1.7    2.9
H    -4.4   -0.8    2.1
H    -4.1    1.1    3.7
H    -2.8    0.1    4.5
H    -4.9   -0.1    5.8
H    -4.5   -1.7    5.0
H    -6.8   -0.0    4.4
H    -8.2   -2.6    2.8
H    -8.1   -0.9    2.7
H    -6.4   -3.8    3.4
N    -2.6    2.5    1.6
C    -1.7    2.9    2.6
H    -3.1    3.2    1.1
H    -1.9    4.0    2.8
H    -0.7    2.7    2.3
H    -1.9    2.4    3.5
