          35
 sphere cut out from bulk 
C    -0.1    0.1   -0.3
C    -0.5   -0.8    0.8
O    -0.5   -2.0    0.7
H     1.0   -0.1   -0.6
H    -0.1    1.2   -0.0
H    -0.7   -0.1   -1.2
N    -0.9   -0.2    2.0
C    -1.4   -0.9    3.1
C    -2.4    0.0    3.9
O    -2.2    1.2    3.9
H    -0.9    0.8    2.1
H    -1.9   -1.8    2.7
C    -0.2   -1.4    4.0
C    -0.7   -2.3    5.2
C     0.5   -2.9    5.9
N     0.2   -3.7    7.1
C    -0.5   -4.9    6.9
N    -0.1   -5.7    5.8
N    -1.5   -5.2    7.7
H     0.3   -0.5    4.4
H     0.5   -1.9    3.4
H    -1.3   -3.1    4.8
H    -1.3   -1.7    5.9
H     1.1   -2.1    6.3
H     1.2   -3.4    5.2
H    -0.2   -3.2    7.9
H    -0.5   -6.6    5.8
H     0.8   -5.6    5.5
H    -1.8   -6.2    7.6
N    -3.4   -0.6    4.5
C    -4.4    0.1    5.3
H    -3.5   -1.6    4.3
H    -5.4    0.0    4.9
H    -4.1    1.2    5.3
H    -4.4   -0.2    6.3
