          35
 sphere cut out from bulk 
C     1.7   -2.0    0.7
C     0.9   -2.1    2.0
O     0.8   -3.1    2.6
H     2.8   -2.3    0.9
H     1.7   -1.0    0.2
H     1.3   -2.8   -0.0
N     0.3   -0.9    2.4
C    -0.6   -0.9    3.5
C    -1.6    0.3    3.4
O    -2.8    0.1    3.5
H     0.3   -0.1    1.7
H    -1.2   -1.8    3.4
C     0.1   -0.9    4.9
C    -0.7   -1.4    6.0
C    -1.1   -2.9    5.8
N    -0.1   -3.8    5.5
C     1.0   -4.0    6.3
N     0.8   -4.0    7.6
N     2.2   -4.3    5.8
H     0.5    0.1    5.1
H     1.0   -1.5    4.8
H    -1.6   -0.8    6.2
H    -0.1   -1.3    6.9
H    -1.9   -3.0    5.1
H    -1.6   -3.2    6.8
H     0.2   -3.8    4.5
H     1.6   -4.3    8.2
H    -0.1   -4.4    8.0
H     2.3   -4.2    4.8
N    -1.1    1.6    3.1
C     0.2    2.1    3.3
H    -1.9    2.2    3.1
H     0.9    1.4    3.2
H     0.3    2.6    4.3
H     0.3    2.9    2.5
