          35
 sphere cut out from bulk 
C    -0.1    0.3   -0.3
C    -0.1   -0.3    1.1
O     0.9   -0.7    1.6
H    -0.7    1.2   -0.4
H    -0.5   -0.4   -1.1
H     1.0    0.6   -0.6
N    -1.3   -0.4    1.7
C    -2.6    0.1    1.4
C    -3.1   -0.3   -0.0
O    -3.3    0.5   -0.9
H    -1.2   -0.8    2.7
H    -3.3   -0.4    2.1
C    -2.8    1.6    1.6
C    -4.3    2.0    1.8
C    -4.5    3.5    2.0
N    -3.8    4.1    3.1
C    -4.2    3.9    4.4
N    -3.3    4.5    5.4
N    -5.2    3.2    4.7
H    -2.4    2.2    0.8
H    -2.2    1.9    2.5
H    -4.7    1.5    2.7
H    -4.8    1.7    0.9
H    -5.5    3.7    2.1
H    -4.1    4.1    1.1
H    -2.8    4.3    3.0
H    -3.6    4.5    6.3
H    -2.9    5.4    5.1
H    -5.5    3.3    5.7
N    -3.1   -1.7   -0.3
C    -2.9   -2.8    0.6
H    -3.4   -1.9   -1.2
H    -3.3   -2.6    1.6
H    -1.8   -3.0    0.8
H    -3.3   -3.7    0.2
