          35
 sphere cut out from bulk 
C    -3.1   -0.7    1.3
C    -2.2   -0.9    2.5
O    -1.0   -0.8    2.5
H    -2.8   -1.5    0.6
H    -2.9    0.3    0.9
H    -4.1   -0.8    1.5
N    -2.9   -1.0    3.7
C    -2.2   -1.2    5.0
C    -1.8   -2.7    5.2
O    -2.4   -3.4    6.1
H    -3.9   -1.2    3.7
H    -1.3   -0.6    4.9
C    -3.1   -0.6    6.2
C    -2.8    0.8    6.5
C    -2.8    1.9    5.4
N    -4.0    1.9    4.6
C    -5.2    2.4    5.1
N    -6.3    2.1    4.2
N    -5.5    3.0    6.2
H    -2.9   -1.3    7.0
H    -4.1   -0.7    5.9
H    -1.7    0.9    7.0
H    -3.5    1.1    7.3
H    -2.0    1.7    4.7
H    -2.6    2.9    5.8
H    -4.1    1.2    3.9
H    -6.1    2.4    3.3
H    -7.1    2.6    4.5
H    -4.7    3.0    6.8
N    -0.8   -3.1    4.4
C    -0.4   -4.5    4.4
H    -0.5   -2.4    3.7
H     0.7   -4.5    4.5
H    -0.7   -5.0    3.4
H    -0.8   -5.0    5.2
