          35
 sphere cut out from bulk 
C    -0.3    1.2   -0.7
C    -0.7    1.4    0.8
O    -0.9    2.6    1.3
H     0.7    1.8   -0.8
H    -1.0    1.7   -1.3
H    -0.2    0.2   -0.9
N    -1.0    0.3    1.5
C    -1.2    0.3    2.9
C    -0.9   -1.1    3.4
O    -0.3   -1.9    2.6
H    -0.6   -0.6    1.1
H    -0.6    1.0    3.4
C    -2.7    0.8    3.2
C    -3.8   -0.2    2.8
C    -4.4   -1.1    3.9
N    -5.0   -0.3    4.9
C    -4.5   -0.1    6.2
N    -5.3    0.6    7.1
N    -3.2   -0.4    6.4
H    -2.8    1.7    2.7
H    -2.8    1.0    4.3
H    -3.5   -0.8    1.9
H    -4.6    0.4    2.3
H    -3.6   -1.7    4.3
H    -5.2   -1.7    3.4
H    -6.0   -0.1    4.9
H    -4.9    1.0    7.9
H    -6.0    1.2    6.7
H    -3.0   -0.1    7.4
N    -1.1   -1.4    4.7
C    -0.9   -2.7    5.2
H    -1.8   -0.8    5.2
H     0.2   -2.9    5.3
H    -1.2   -3.5    4.5
H    -1.3   -2.8    6.2
