          35
 sphere cut out from bulk 
C    -1.0    0.1    0.3
C    -0.5    0.0    1.8
O     0.7   -0.2    2.0
H    -0.8   -0.9   -0.1
H    -0.3    0.8   -0.2
H    -2.0    0.3    0.2
N    -1.5    0.2    2.7
C    -1.5    0.2    4.2
C    -1.6    1.6    4.8
O    -2.5    1.8    5.7
H    -2.4    0.4    2.3
H    -2.4   -0.3    4.4
C    -0.4   -0.7    4.8
C    -0.4   -0.8    6.3
C    -1.7   -1.4    6.9
N    -1.7   -1.6    8.3
C    -2.0   -0.5    9.2
N    -1.7   -0.8   10.5
N    -2.4    0.7    8.8
H     0.6   -0.4    4.5
H    -0.5   -1.7    4.3
H    -0.3    0.2    6.7
H     0.4   -1.4    6.6
H    -1.9   -2.4    6.4
H    -2.6   -0.8    6.6
H    -1.0   -2.2    8.7
H    -2.1   -1.7   10.8
H    -2.1   -0.0   11.1
H    -2.5    0.9    7.8
N    -0.6    2.5    4.6
C     0.5    2.5    3.7
H    -0.8    3.4    5.1
H     0.2    3.1    2.8
H     0.8    1.5    3.4
H     1.4    3.0    4.2
