          35
 sphere cut out from bulk 
C     0.1   -3.3   -0.7
C    -0.2   -3.3    0.8
O    -0.4   -4.3    1.4
H     0.5   -2.3   -1.1
H    -0.8   -3.6   -1.3
H     0.9   -4.0   -0.9
N    -0.4   -2.0    1.3
C    -0.9   -1.8    2.6
C    -0.2   -2.6    3.8
O    -0.8   -2.9    4.8
H    -0.3   -1.2    0.7
H    -0.6   -0.7    2.8
C    -2.4   -1.8    2.8
C    -3.1   -3.2    2.6
C    -4.3   -3.3    3.5
N    -3.9   -3.3    4.9
C    -4.5   -2.6    5.9
N    -5.9   -2.4    5.7
N    -4.0   -2.1    7.0
H    -2.8   -1.1    2.0
H    -2.7   -1.4    3.8
H    -2.4   -4.0    2.8
H    -3.4   -3.3    1.6
H    -4.8   -4.3    3.3
H    -5.0   -2.5    3.3
H    -2.9   -3.3    5.0
H    -6.4   -2.0    6.5
H    -6.4   -3.2    5.3
H    -3.0   -2.1    6.9
N     1.1   -2.7    3.6
C     1.9   -3.5    4.5
H     1.5   -2.6    2.7
H     2.9   -3.2    4.6
H     1.9   -4.6    4.2
H     1.5   -3.5    5.5
