          35
 sphere cut out from bulk 
C     0.5    0.2    0.2
C     0.4    0.5    1.7
O     1.4    1.0    2.4
H     1.1   -0.6    0.1
H     0.9    1.1   -0.3
H    -0.5    0.0   -0.2
N    -0.8    0.2    2.3
C    -1.0    0.2    3.8
C    -0.2    1.3    4.5
O     0.6    1.0    5.4
H    -1.5   -0.2    1.8
H    -2.0    0.5    3.9
C    -0.8   -1.2    4.4
C    -1.4   -1.4    5.8
C    -0.3   -1.6    6.9
N     0.5   -2.8    6.8
C     1.8   -2.8    6.2
N     2.3   -4.1    6.2
N     2.5   -1.8    5.8
H     0.3   -1.4    4.3
H    -1.2   -1.9    3.7
H    -2.1   -2.3    5.8
H    -2.0   -0.6    6.0
H    -0.9   -1.7    7.8
H     0.3   -0.8    7.0
H     0.0   -3.7    6.7
H     3.3   -4.0    5.9
H     2.2   -4.6    7.0
H     1.9   -0.9    5.8
N    -0.5    2.6    4.3
C    -1.2    3.1    3.2
H     0.2    3.2    4.8
H    -2.1    2.6    3.0
H    -0.7    3.1    2.2
H    -1.5    4.2    3.4
