          35
 sphere cut out from bulk 
C    -0.1   -0.2    0.3
C    -0.1   -0.2    1.8
O     0.9   -0.4    2.5
H    -0.4    0.8   -0.1
H    -0.8   -0.9   -0.1
H     0.9   -0.4   -0.0
N    -1.3   -0.1    2.5
C    -2.7   -0.0    1.9
C    -3.1   -1.3    1.2
O    -3.0   -2.4    1.8
H    -1.3   -0.3    3.4
H    -3.3   -0.1    2.8
C    -3.0    1.4    1.3
C    -2.8    2.5    2.2
C    -1.4    3.1    2.2
N    -1.2    4.4    2.9
C    -1.7    5.6    2.4
N    -1.6    6.6    3.4
N    -2.1    5.8    1.2
H    -4.1    1.3    1.0
H    -2.5    1.5    0.4
H    -3.1    2.3    3.3
H    -3.5    3.4    2.0
H    -1.1    3.3    1.2
H    -0.7    2.4    2.6
H    -1.2    4.3    4.0
H    -1.8    7.5    2.9
H    -0.7    6.7    3.9
H    -2.3    5.0    0.7
N    -3.5   -1.4   -0.1
C    -3.6   -0.4   -1.2
H    -3.8   -2.3   -0.4
H    -2.7    0.2   -1.4
H    -4.4    0.3   -1.0
H    -3.9   -0.9   -2.1
