          35
 sphere cut out from bulk 
C    -0.3   -0.5    0.4
C    -0.1   -0.6    1.9
O     0.9   -1.0    2.4
H     0.2   -1.3   -0.0
H     0.2    0.4    0.1
H    -1.4   -0.5    0.1
N    -1.2   -0.4    2.8
C    -2.4    0.5    2.6
C    -3.5   -0.3    1.9
O    -3.3   -1.2    1.1
H    -0.9   -0.6    3.8
H    -2.7    0.6    3.7
C    -2.1    1.8    2.0
C    -1.6    2.9    2.9
C    -0.2    2.6    3.7
N     0.8    2.2    2.8
C     1.4    2.9    1.8
N     2.2    2.1    1.0
N     1.3    4.2    1.6
H    -3.0    2.2    1.5
H    -1.4    1.7    1.1
H    -2.3    3.1    3.7
H    -1.5    3.8    2.3
H    -0.4    1.9    4.5
H     0.1    3.6    4.2
H     1.0    1.2    2.8
H     2.9    2.7    0.4
H     2.6    1.3    1.4
H     0.7    4.6    2.3
N    -4.8    0.1    2.2
C    -5.2    1.1    3.2
H    -5.5   -0.4    1.7
H    -4.9    0.8    4.2
H    -6.3    1.1    3.2
H    -4.8    2.1    3.0
