          35
 sphere cut out from bulk 
C    -2.9    0.3   -0.3
C    -2.1   -0.2    0.9
O    -1.4   -1.2    0.9
H    -3.4   -0.5   -0.8
H    -2.1    0.6   -1.1
H    -3.5    1.2   -0.1
N    -2.4    0.5    2.1
C    -1.7    0.2    3.3
C    -2.5   -0.9    4.1
O    -3.1   -0.7    5.1
H    -3.1    1.3    2.1
H    -0.7   -0.2    3.1
C    -1.6    1.4    4.2
C    -0.6    2.5    3.6
C    -0.5    3.7    4.5
N     0.4    4.8    4.0
C     1.8    4.6    3.8
N     2.4    3.9    4.8
N     2.3    5.2    2.8
H    -1.2    1.1    5.2
H    -2.5    1.9    4.4
H    -1.0    2.8    2.6
H     0.4    2.1    3.4
H    -0.1    3.4    5.5
H    -1.5    4.2    4.7
H     0.0    5.3    3.3
H     1.9    3.3    5.4
H     3.3    3.4    4.5
H     3.4    5.1    2.8
N    -2.3   -2.1    3.5
C    -3.0   -3.3    4.0
H    -1.8   -2.2    2.6
H    -3.5   -3.1    4.9
H    -2.3   -4.2    4.1
H    -3.8   -3.6    3.3
