          35
 sphere cut out from bulk 
C     1.0    0.4    0.6
C     0.7   -0.0    2.0
O     1.5   -0.4    2.8
H     0.2    0.3   -0.1
H     1.9   -0.2    0.2
H     1.3    1.4    0.6
N    -0.7    0.0    2.3
C    -1.2   -0.3    3.6
C    -2.7   -0.7    3.4
O    -3.3   -0.2    2.4
H    -1.4    0.3    1.6
H    -0.7   -1.2    4.0
C    -1.1    0.8    4.6
C     0.2    0.8    5.5
C     1.0    2.1    5.5
N     1.5    2.4    4.2
C     1.2    3.5    3.4
N     0.8    4.6    4.1
N     1.2    3.4    2.1
H    -2.0    0.8    5.3
H    -1.1    1.8    4.1
H     0.8   -0.0    5.1
H    -0.1    0.6    6.5
H     1.8    2.0    6.2
H     0.4    2.9    5.8
H     1.8    1.6    3.6
H     0.7    5.5    3.6
H     1.3    4.8    5.0
H     1.1    4.3    1.7
N    -3.2   -1.4    4.3
C    -4.7   -1.8    4.3
H    -2.6   -1.8    5.1
H    -5.2   -1.4    5.2
H    -4.8   -2.9    4.3
H    -5.1   -1.4    3.4
