          35
 sphere cut out from bulk 
C     1.0   -2.3   -0.1
C     1.3   -1.2    0.9
O     2.5   -1.2    1.4
H    -0.1   -2.2   -0.5
H     1.1   -3.3    0.4
H     1.7   -2.2   -0.9
N     0.4   -0.3    1.2
C     0.6    0.8    2.1
C     0.3    0.3    3.6
O    -0.8    0.4    4.1
H    -0.6   -0.5    0.8
H     1.6    1.1    2.0
C    -0.3    2.0    1.8
C     0.2    3.3    2.2
C     0.3    3.5    3.8
N     0.8    4.8    4.0
C     0.9    5.3    5.3
N     1.1    4.4    6.3
N     0.9    6.6    5.7
H    -1.3    1.8    2.2
H    -0.4    2.0    0.7
H    -0.5    4.1    1.8
H     1.2    3.5    1.8
H     1.0    2.8    4.2
H    -0.7    3.3    4.2
H     0.5    5.6    3.4
H     1.4    4.8    7.2
H     1.6    3.5    6.1
H     0.7    7.2    4.9
N     1.4   -0.4    4.1
C     1.3   -1.1    5.4
H     2.1   -0.6    3.4
H     0.5   -0.6    6.0
H     2.3   -1.0    5.9
H     1.1   -2.1    5.2
