          35
 sphere cut out from bulk 
C     1.9   -0.3    0.7
C     1.2   -0.1    2.0
O     1.9    0.3    3.0
H     2.8   -1.0    0.8
H     2.4    0.7    0.4
H     1.3   -0.7   -0.1
N    -0.1   -0.3    2.0
C    -0.9   -0.3    3.2
C    -0.7    0.8    4.2
O    -0.5    0.7    5.4
H    -0.5   -0.8    1.2
H    -1.9   -0.1    2.9
C    -0.9   -1.7    4.0
C    -2.3   -2.1    4.5
C    -3.2   -2.8    3.5
N    -3.8   -1.9    2.5
C    -3.2   -1.6    1.3
N    -3.8   -0.5    0.7
N    -2.2   -2.1    0.7
H    -0.5   -2.4    3.3
H    -0.2   -1.6    4.8
H    -2.8   -1.3    5.0
H    -2.1   -2.9    5.3
H    -4.1   -3.2    4.1
H    -2.7   -3.6    3.0
H    -4.4   -1.2    2.9
H    -3.5   -0.4   -0.3
H    -4.8   -0.4    0.8
H    -1.8   -2.9    1.3
N    -0.7    2.1    3.7
C    -0.9    2.6    2.3
H    -0.5    2.8    4.4
H    -1.3    3.6    2.4
H    -1.6    1.9    1.8
H     0.1    2.6    1.8
