          35
 sphere cut out from bulk 
C    -1.6   -2.7    0.3
C    -2.0   -1.8    1.5
O    -3.0   -1.0    1.4
H    -1.8   -2.1   -0.6
H    -2.2   -3.6    0.3
H    -0.6   -3.0    0.3
N    -1.3   -2.0    2.6
C    -1.8   -1.5    3.9
C    -1.3   -0.1    4.2
O    -0.5    0.2    5.1
H    -0.6   -2.7    2.6
H    -2.9   -1.5    3.8
C    -1.4   -2.5    5.0
C    -2.5   -2.6    6.1
C    -3.7   -3.4    5.7
N    -3.5   -4.7    5.4
C    -3.4   -5.2    4.1
N    -3.1   -6.6    4.0
N    -3.5   -4.5    3.0
H    -0.5   -2.1    5.5
H    -1.2   -3.5    4.6
H    -2.7   -1.6    6.5
H    -2.0   -3.1    7.0
H    -4.2   -2.8    4.9
H    -4.4   -3.3    6.6
H    -3.7   -5.4    6.1
H    -2.4   -6.9    4.7
H    -3.0   -6.9    3.1
H    -3.9   -3.6    3.1
N    -1.9    0.8    3.4
C    -1.5    2.2    3.4
H    -2.5    0.5    2.6
H    -0.9    2.4    4.3
H    -2.4    2.9    3.4
H    -0.9    2.5    2.5
