          35
 sphere cut out from bulk 
C     0.1    0.0    0.6
C     0.1    0.2    2.1
O     1.0   -0.3    2.8
H     0.9   -0.6    0.3
H     0.2    1.0    0.0
H    -0.9   -0.5    0.2
N    -0.9    1.0    2.7
C    -2.1    1.5    2.2
C    -3.2    0.5    1.9
O    -2.9   -0.7    1.6
H    -0.8    0.9    3.7
H    -2.5    2.1    3.1
C    -2.0    2.5    1.0
C    -2.6    2.1   -0.3
C    -2.1    3.0   -1.5
N    -2.6    2.6   -2.8
C    -1.8    1.9   -3.7
N    -0.8    1.1   -3.2
N    -2.0    1.9   -5.0
H    -0.9    2.8    0.9
H    -2.5    3.5    1.3
H    -3.7    2.1   -0.3
H    -2.3    1.1   -0.6
H    -1.0    3.0   -1.5
H    -2.4    4.0   -1.3
H    -3.3    3.2   -3.2
H    -0.4    0.6   -3.9
H    -1.1    0.6   -2.4
H    -2.7    2.7   -5.3
N    -4.5    0.8    2.1
C    -5.1    2.1    2.4
H    -5.2    0.1    1.9
H    -6.1    2.0    2.7
H    -5.0    2.8    1.6
H    -4.5    2.6    3.3
