          35
 sphere cut out from bulk 
C    -0.5   -0.3   -0.7
C     0.1   -0.4    0.7
O     1.2   -0.6    0.9
H     0.4   -0.5   -1.4
H    -0.9    0.7   -0.9
H    -1.3   -1.1   -0.9
N    -0.9   -0.2    1.7
C    -2.3   -0.1    1.6
C    -2.7    0.9    2.7
O    -3.0    0.6    3.8
H    -0.5   -0.4    2.6
H    -2.5    0.3    0.6
C    -3.0   -1.4    1.8
C    -4.6   -1.4    1.6
C    -5.0   -0.8    0.2
N    -6.4   -0.9   -0.0
C    -7.0   -2.1   -0.5
N    -8.3   -2.1   -0.5
N    -6.2   -3.1   -0.8
H    -2.8   -1.8    2.8
H    -2.6   -2.1    1.1
H    -5.0   -0.8    2.4
H    -5.0   -2.4    1.7
H    -4.5   -1.3   -0.6
H    -4.8    0.3    0.1
H    -7.0   -0.4    0.6
H    -8.8   -3.0   -1.0
H    -8.8   -1.3   -0.8
H    -6.7   -3.9   -1.2
N    -2.7    2.2    2.3
C    -2.2    2.8    1.0
H    -2.9    2.9    3.0
H    -2.4    3.9    1.0
H    -2.8    2.4    0.1
H    -1.2    2.6    0.9
