          35
 sphere cut out from bulk 
C    -0.9    2.6    0.7
C    -0.8    2.0    2.0
O    -0.6    2.7    3.1
H    -1.1    1.9   -0.1
H     0.0    3.2    0.5
H    -1.7    3.4    0.7
N    -0.8    0.6    2.1
C    -0.7   -0.1    3.3
C    -1.6    0.3    4.4
O    -1.2    0.3    5.6
H    -0.9    0.1    1.2
H    -1.0   -1.2    3.0
C     0.8   -0.2    3.8
C     1.7   -1.2    3.1
C     1.1   -2.7    3.1
N     0.5   -3.1    4.3
C    -0.8   -3.2    4.5
N    -1.3   -2.9    5.8
N    -1.7   -3.6    3.6
H     0.7   -0.4    4.9
H     1.2    0.8    3.7
H     2.7   -1.2    3.6
H     1.9   -1.0    2.0
H     1.9   -3.4    2.8
H     0.3   -2.8    2.3
H     1.0   -2.9    5.2
H    -2.3   -3.1    5.9
H    -1.0   -2.0    6.2
H    -1.2   -4.0    2.8
N    -3.0    0.4    4.1
C    -3.6    0.1    2.9
H    -3.5    0.7    4.9
H    -4.7   -0.0    3.1
H    -3.3   -0.8    2.5
H    -3.6    0.9    2.1
