          35
 sphere cut out from bulk 
C     0.1    0.7    0.0
C     0.1    0.1    1.4
O     1.1   -0.1    2.0
H    -0.3    1.8    0.0
H    -0.6    0.1   -0.7
H     1.1    0.7   -0.3
N    -1.1   -0.1    2.0
C    -2.5   -0.1    1.6
C    -2.8   -1.3    0.6
O    -2.0   -1.7   -0.2
H    -1.0   -0.5    3.0
H    -3.1   -0.3    2.5
C    -3.0    1.2    0.9
C    -2.8    2.4    1.8
C    -3.2    3.7    1.1
N    -3.0    4.9    2.0
C    -3.7    6.0    1.9
N    -3.3    7.1    2.7
N    -4.8    6.0    1.1
H    -4.1    1.1    0.7
H    -2.5    1.3   -0.0
H    -1.7    2.5    2.1
H    -3.3    2.3    2.8
H    -4.3    3.7    1.0
H    -2.8    3.8    0.2
H    -2.0    5.0    2.3
H    -3.5    8.0    2.4
H    -2.4    7.0    3.1
H    -5.3    6.9    1.2
N    -4.1   -1.9    0.7
C    -5.1   -1.6    1.7
H    -4.2   -2.6    0.1
H    -4.8   -1.8    2.7
H    -6.0   -2.2    1.5
H    -5.5   -0.5    1.7
