          35
 sphere cut out from bulk 
C    -1.5    1.9   -0.5
C    -0.8    0.6   -0.1
O     0.1    0.1   -0.7
H    -0.8    2.4   -1.1
H    -1.7    2.5    0.4
H    -2.4    1.7   -1.0
N    -1.3   -0.1    1.0
C    -2.7    0.1    1.5
C    -2.9    1.0    2.7
O    -4.0    1.4    3.1
H    -0.9   -1.0    1.1
H    -3.3    0.6    0.7
C    -3.4   -1.3    1.9
C    -3.4   -2.3    0.7
C    -4.0   -1.8   -0.6
N    -2.9   -1.3   -1.4
C    -3.1   -0.4   -2.5
N    -2.0   -0.2   -3.2
N    -4.2    0.2   -2.9
H    -4.4   -1.0    2.2
H    -2.8   -1.7    2.7
H    -4.1   -3.1    1.1
H    -2.5   -2.8    0.6
H    -4.7   -1.1   -0.5
H    -4.5   -2.7   -1.1
H    -2.1   -1.9   -1.5
H    -2.1    0.5   -3.9
H    -1.1   -0.2   -2.7
H    -5.0   -0.2   -2.3
N    -1.7    1.5    3.2
C    -1.6    2.4    4.4
H    -0.8    1.1    2.8
H    -1.1    3.3    4.1
H    -1.1    1.9    5.2
H    -2.7    2.6    4.7
