          35
 sphere cut out from bulk 
C     1.0    1.7    2.0
C     0.4    0.4    2.3
O     1.1   -0.6    2.6
H     0.7    2.5    2.7
H     0.7    2.1    1.0
H     2.1    1.6    2.0
N    -0.9    0.2    2.2
C    -1.9    1.3    1.9
C    -2.1    2.3    3.1
O    -2.3    3.5    2.8
H    -1.2   -0.7    2.4
H    -1.5    1.9    1.1
C    -3.2    0.7    1.5
C    -3.2   -0.2    0.3
C    -2.7    0.6   -1.0
N    -2.9   -0.2   -2.2
C    -4.1   -0.3   -2.9
N    -4.0   -1.3   -3.9
N    -5.2    0.2   -2.6
H    -3.9    1.5    1.4
H    -3.7    0.1    2.4
H    -4.2   -0.6    0.1
H    -2.6   -1.1    0.4
H    -1.7    0.8   -0.9
H    -3.3    1.5   -1.1
H    -2.2   -1.0   -2.3
H    -4.9   -1.2   -4.5
H    -3.2   -1.2   -4.5
H    -5.2    0.8   -1.8
N    -2.1    1.9    4.4
C    -2.0    0.6    5.0
H    -2.2    2.7    5.0
H    -2.7   -0.2    4.5
H    -2.3    0.6    6.0
H    -1.0    0.1    4.9
