          35
 sphere cut out from bulk 
C    -0.1    0.2    0.0
C    -0.1    0.0    1.5
O     1.0   -0.2    2.1
H     0.5    1.0   -0.3
H    -1.1    0.3   -0.4
H     0.3   -0.7   -0.5
N    -1.3    0.1    2.2
C    -1.4   -0.0    3.6
C    -1.4   -1.5    4.1
O    -2.5   -2.0    4.5
H    -2.1    0.1    1.6
H    -0.5    0.4    4.0
C    -2.6    0.8    4.1
C    -2.6    2.2    3.8
C    -3.8    3.0    4.3
N    -3.9    4.4    4.0
C    -4.2    4.8    2.7
N    -4.0    6.2    2.5
N    -4.6    4.2    1.7
H    -2.8    0.6    5.2
H    -3.5    0.3    3.6
H    -2.4    2.5    2.8
H    -1.7    2.7    4.3
H    -3.9    2.9    5.4
H    -4.7    2.5    3.9
H    -3.2    5.0    4.5
H    -4.3    6.5    1.6
H    -4.3    6.8    3.3
H    -4.6    3.1    1.9
N    -0.2   -2.1    4.0
C    -0.1   -3.5    4.3
H     0.5   -1.6    3.5
H     0.8   -3.7    4.9
H     0.1   -4.1    3.3
H    -0.9   -3.9    4.8
