          35
 sphere cut out from bulk 
C    -0.1    0.9   -1.7
C    -0.0    0.6   -0.2
O     1.0    0.7    0.5
H     0.7    0.5   -2.2
H    -0.0    2.0   -1.7
H    -1.1    0.6   -2.1
N    -1.1   -0.0    0.3
C    -1.3   -0.3    1.8
C    -0.6   -1.7    2.1
O    -1.3   -2.7    2.6
H    -1.9   -0.2   -0.3
H    -0.7    0.4    2.3
C    -2.8   -0.3    2.2
C    -3.7   -1.2    1.5
C    -5.0   -0.6    1.0
N    -4.9    0.7    0.3
C    -4.2    0.8   -0.9
N    -4.0    2.1   -1.2
N    -3.6   -0.1   -1.6
H    -3.1    0.8    2.0
H    -2.8   -0.5    3.3
H    -4.0   -2.1    2.1
H    -3.2   -1.7    0.6
H    -5.6   -0.3    1.9
H    -5.6   -1.3    0.4
H    -5.4    1.5    0.6
H    -3.4    2.2   -2.1
H    -3.7    2.8   -0.5
H    -4.0   -1.0   -1.3
N     0.7   -1.8    1.9
C     1.5   -2.9    2.1
H     1.1   -0.9    1.5
H     1.9   -3.3    1.1
H     0.9   -3.7    2.5
H     2.3   -2.7    2.8
