          35
 sphere cut out from bulk 
C     0.4    0.5    0.6
C     0.1    0.4    2.1
O     0.9    0.7    2.9
H     1.5    0.7    0.5
H    -0.1    1.2    0.1
H     0.2   -0.5    0.1
N    -1.1   -0.0    2.4
C    -2.3   -0.3    1.6
C    -2.8    1.0    0.8
O    -3.1    0.8   -0.4
H    -1.3    0.0    3.4
H    -2.0   -1.0    0.8
C    -3.4   -0.9    2.4
C    -4.5   -1.5    1.5
C    -5.8   -1.9    2.4
N    -6.8   -2.5    1.6
C    -8.0   -1.7    1.2
N    -7.7   -0.4    0.9
N    -9.1   -2.4    1.1
H    -3.8   -0.2    3.1
H    -3.0   -1.7    3.0
H    -4.2   -2.3    0.9
H    -4.8   -0.7    0.8
H    -6.1   -1.0    2.9
H    -5.5   -2.6    3.1
H    -7.1   -3.4    1.8
H    -6.9   -0.2    0.4
H    -8.5    0.1    0.5
H    -9.8   -1.8    0.7
N    -2.9    2.2    1.4
C    -2.6    2.6    2.7
H    -3.2    2.9    0.7
H    -3.0    3.6    2.9
H    -1.5    2.7    2.9
H    -3.0    1.9    3.5
