          35
 sphere cut out from bulk 
C    -1.5    1.2   -0.6
C    -0.8    1.3    0.8
O     0.3    1.9    0.9
H    -2.1    2.1   -0.7
H    -2.2    0.3   -0.7
H    -0.7    1.1   -1.4
N    -1.3    0.6    1.9
C    -2.7    0.1    2.1
C    -3.0   -1.2    1.3
O    -4.1   -1.5    1.0
H    -0.8    0.8    2.7
H    -2.7   -0.2    3.1
C    -3.8    1.2    1.9
C    -3.7    2.3    2.9
C    -3.5    3.7    2.3
N    -2.2    3.8    1.7
C    -2.0    4.5    0.5
N    -0.7    4.7    0.2
N    -3.1    5.0   -0.2
H    -4.7    0.6    1.9
H    -3.7    1.6    0.9
H    -2.9    2.1    3.6
H    -4.7    2.3    3.5
H    -3.7    4.5    3.1
H    -4.3    3.9    1.5
H    -1.4    3.8    2.3
H    -0.5    5.0   -0.8
H    -0.1    3.9    0.4
H    -2.8    5.4   -1.1
N    -1.9   -1.9    0.9
C    -1.9   -3.2    0.3
H    -1.0   -1.5    1.2
H    -1.5   -4.0    0.8
H    -1.5   -3.1   -0.7
H    -3.0   -3.4    0.1
