          35
 sphere cut out from bulk 
C    -0.0   -0.6   -0.3
C     0.2    0.1    1.0
O     1.1    0.8    1.2
H     1.0   -0.8   -0.7
H    -0.5    0.1   -1.0
H    -0.6   -1.5   -0.3
N    -0.7   -0.2    2.0
C    -2.1   -0.7    2.0
C    -2.8   -0.5    0.7
O    -2.8    0.6    0.1
H    -0.4    0.1    2.9
H    -2.1   -1.8    2.2
C    -2.9   -0.0    3.2
C    -3.0    1.5    3.0
C    -2.8    2.3    4.3
N    -1.5    2.1    5.0
C    -0.3    2.0    4.3
N     0.0    2.9    3.3
N     0.5    1.0    4.6
H    -2.3   -0.3    4.1
H    -3.8   -0.5    3.3
H    -4.0    1.7    2.6
H    -2.3    1.8    2.2
H    -3.6    2.1    5.0
H    -2.9    3.4    4.0
H    -1.6    1.4    5.7
H     0.6    2.5    2.6
H    -0.7    3.6    3.1
H     1.4    1.0    4.2
N    -3.6   -1.5    0.3
C    -4.5   -1.4   -0.8
H    -3.6   -2.4    0.9
H    -5.6   -1.6   -0.5
H    -4.3   -2.2   -1.6
H    -4.4   -0.5   -1.3
