          35
 sphere cut out from bulk 
C     0.3   -0.4    0.7
C    -0.3   -0.7    2.0
O     0.4   -0.9    3.0
H     0.6   -1.3    0.2
H     1.2    0.2    0.9
H    -0.3    0.2    0.0
N    -1.7   -0.9    2.1
C    -2.7   -0.5    1.2
C    -2.6   -1.2   -0.2
O    -2.9   -0.7   -1.3
H    -2.0   -1.1    3.1
H    -3.6   -0.9    1.6
C    -2.8    1.0    1.0
C    -4.2    1.5    0.6
C    -4.3    2.9    0.1
N    -3.3    3.3   -0.9
C    -3.5    3.1   -2.3
N    -4.0    1.9   -2.6
N    -3.1    3.9   -3.2
H    -2.1    1.4    0.3
H    -2.6    1.5    2.0
H    -5.0    1.4    1.4
H    -4.6    0.8   -0.2
H    -4.1    3.6    1.0
H    -5.3    3.1   -0.3
H    -2.9    4.2   -0.7
H    -4.0    1.7   -3.6
H    -3.6    1.0   -2.1
H    -2.9    4.8   -2.9
N    -2.2   -2.5   -0.1
C    -2.0   -3.4   -1.2
H    -1.9   -2.8    0.8
H    -2.5   -4.3   -1.1
H    -1.0   -3.6   -1.4
H    -2.5   -2.9   -2.1
