          35
 sphere cut out from bulk 
C    -1.5   -0.7    0.1
C    -0.7   -0.9    1.4
O     0.1   -1.9    1.4
H    -1.2    0.3   -0.4
H    -2.6   -0.6    0.4
H    -1.4   -1.5   -0.6
N    -0.8   -0.1    2.4
C    -1.5    1.2    2.5
C    -0.6    2.3    3.0
O     0.3    2.0    3.8
H    -0.1   -0.2    3.2
H    -1.9    1.4    1.5
C    -2.7    1.1    3.5
C    -3.8    0.1    3.1
C    -4.9   -0.2    4.1
N    -4.3   -0.8    5.3
C    -5.0   -0.8    6.5
N    -4.4   -1.6    7.5
N    -6.2   -0.3    6.8
H    -3.2    2.1    3.6
H    -2.3    0.8    4.5
H    -3.3   -0.9    2.8
H    -4.3    0.4    2.1
H    -5.7   -0.8    3.7
H    -5.3    0.8    4.4
H    -3.7   -1.6    5.2
H    -4.9   -1.5    8.4
H    -3.4   -1.3    7.6
H    -6.7    0.0    5.9
N    -0.8    3.6    2.6
C    -1.8    4.0    1.7
H    -0.2    4.2    3.0
H    -1.8    5.1    1.6
H    -2.9    3.8    2.0
H    -1.7    3.6    0.7
