          35
 sphere cut out from bulk 
C    -0.4   -0.1   -0.5
C    -1.1   -1.0    0.5
O    -1.8   -2.0    0.2
H     0.2    0.7   -0.1
H    -1.1    0.3   -1.2
H     0.3   -0.8   -1.1
N    -1.0   -0.6    1.8
C    -1.8   -1.2    2.9
C    -2.0   -0.2    4.0
O    -3.1    0.1    4.4
H    -0.6    0.4    2.0
H    -2.8   -1.4    2.5
C    -1.2   -2.5    3.3
C    -2.1   -3.5    4.1
C    -2.6   -3.0    5.5
N    -1.5   -2.5    6.3
C    -1.6   -1.6    7.3
N    -2.7   -0.8    7.3
N    -0.7   -1.4    8.2
H    -0.2   -2.4    3.9
H    -0.9   -3.1    2.4
H    -1.6   -4.4    4.2
H    -3.0   -3.7    3.5
H    -3.1   -3.8    6.0
H    -3.3   -2.2    5.3
H    -0.7   -3.1    6.4
H    -2.7   -0.0    8.0
H    -3.1   -0.4    6.4
H     0.0   -2.1    8.2
N    -0.9    0.5    4.6
C     0.5    0.0    4.6
H    -1.1    1.1    5.4
H     0.7   -0.7    5.4
H     1.2    0.9    4.8
H     0.8   -0.4    3.7
