          35
 sphere cut out from bulk 
C     1.3   -2.0    1.4
C     0.8   -0.8    2.1
O     1.5    0.0    2.7
H     1.4   -1.7    0.3
H     2.3   -2.2    1.7
H     0.7   -2.9    1.4
N    -0.6   -0.6    2.2
C    -1.7   -1.5    1.8
C    -1.6   -2.9    2.4
O    -1.6   -4.0    1.8
H    -0.8    0.2    2.7
H    -2.6   -1.1    2.2
C    -1.9   -1.6    0.2
C    -2.5   -0.4   -0.4
C    -1.7    0.9   -0.5
N    -0.3    0.8   -0.8
C     0.1    0.2   -2.0
N    -0.7    0.4   -3.1
N     1.1   -0.6   -1.9
H    -2.5   -2.5    0.1
H    -0.9   -1.9   -0.2
H    -3.5   -0.2   -0.0
H    -2.7   -0.7   -1.5
H    -1.7    1.4    0.5
H    -2.3    1.6   -1.1
H     0.3    0.6   -0.1
H    -0.3    0.1   -4.0
H    -1.1    1.3   -3.2
H     1.5   -0.9   -2.9
N    -1.4   -2.9    3.8
C    -1.5   -1.9    4.8
H    -1.4   -3.9    4.2
H    -1.7   -2.3    5.8
H    -2.2   -1.1    4.5
H    -0.5   -1.3    4.8
