          35
 sphere cut out from bulk 
C     0.2   -0.5    0.9
C    -0.2    0.3    2.1
O     0.5    1.0    2.8
H     1.3   -0.7    1.1
H     0.1    0.1    0.0
H    -0.3   -1.4    0.8
N    -1.6    0.2    2.5
C    -2.7   -0.4    1.8
C    -2.6   -2.0    1.8
O    -3.2   -2.7    1.0
H    -1.8    0.8    3.3
H    -3.6   -0.2    2.5
C    -3.0    0.1    0.4
C    -4.5    0.1   -0.0
C    -5.4    1.0    0.8
N    -6.8    1.0    0.3
C    -7.1    1.8   -0.8
N    -8.4    1.5   -1.2
N    -6.4    2.7   -1.4
H    -2.4   -0.4   -0.3
H    -2.7    1.2    0.4
H    -4.8   -1.0    0.0
H    -4.5    0.4   -1.1
H    -5.0    2.0    0.8
H    -5.5    0.6    1.9
H    -7.3    0.1    0.4
H    -9.1    1.5   -0.5
H    -8.7    2.2   -1.9
H    -5.5    2.7   -1.1
N    -1.9   -2.5    2.9
C    -1.8   -4.0    3.1
H    -1.4   -1.9    3.5
H    -0.7   -4.3    3.0
H    -2.4   -4.5    2.3
H    -2.1   -4.3    4.1
