          35
 sphere cut out from bulk 
C     0.5    1.1   -0.4
C     0.3    1.0    1.1
O     0.9    1.8    1.8
H    -0.2    0.4   -0.9
H     1.5    0.8   -0.6
H     0.3    2.1   -0.8
N    -0.6    0.1    1.6
C    -1.0   -0.2    3.0
C    -2.3    0.5    3.4
O    -3.3   -0.1    3.4
H    -1.1   -0.4    0.9
H    -1.4   -1.2    2.9
C     0.2   -0.3    4.0
C    -0.2   -0.6    5.4
C    -1.2   -1.7    5.6
N    -1.0   -2.9    4.8
C    -2.0   -3.7    4.3
N    -3.2   -3.1    4.1
N    -1.8   -5.0    4.0
H     0.8    0.6    3.9
H     0.8   -1.1    3.6
H    -0.6    0.3    5.9
H     0.7   -0.8    5.9
H    -2.2   -1.4    5.4
H    -1.3   -2.0    6.7
H    -0.1   -3.4    5.1
H    -3.8   -3.8    3.6
H    -3.2   -2.2    3.8
H    -0.9   -5.3    4.3
N    -2.2    1.8    3.8
C    -1.1    2.7    4.0
H    -3.2    2.1    4.1
H    -0.8    2.7    5.0
H    -1.4    3.8    3.7
H    -0.3    2.5    3.4
