          35
 sphere cut out from bulk 
C    -0.6    1.6   -0.0
C    -0.4    1.2    1.4
O     0.6    1.6    2.1
H    -0.9    2.6   -0.1
H    -1.4    1.0   -0.6
H     0.4    1.5   -0.6
N    -1.4    0.5    1.9
C    -1.6    0.1    3.3
C    -3.1   -0.4    3.4
O    -3.8   -0.4    2.5
H    -2.3    0.3    1.4
H    -0.9   -0.7    3.6
C    -1.4    1.3    4.3
C    -2.0    2.6    3.9
C    -1.3    3.9    4.5
N    -1.5    5.1    3.8
C    -1.1    5.4    2.5
N     0.1    4.7    2.2
N    -1.6    6.3    1.9
H    -0.3    1.5    4.3
H    -1.7    1.0    5.3
H    -3.1    2.6    4.2
H    -2.1    2.7    2.8
H    -0.2    3.7    4.5
H    -1.6    4.0    5.5
H    -2.4    5.6    4.0
H     0.4    4.9    1.2
H     0.3    3.8    2.5
H    -1.2    6.5    1.0
N    -3.4   -1.0    4.6
C    -4.7   -1.6    4.9
H    -2.6   -1.0    5.3
H    -4.6   -2.6    5.2
H    -5.3   -1.5    4.0
H    -5.2   -1.1    5.8
