          35
 sphere cut out from bulk 
C     0.1    0.1    0.2
C     0.0    0.0    1.7
O     1.0   -0.1    2.4
H     0.7    0.9   -0.1
H    -0.9    0.1   -0.3
H     0.6   -0.8   -0.2
N    -1.2    0.0    2.2
C    -1.5    0.0    3.6
C    -1.4   -1.5    4.1
O    -2.5   -2.1    4.2
H    -2.0   -0.0    1.6
H    -0.6    0.5    4.1
C    -2.8    0.7    4.0
C    -2.9    1.3    5.4
C    -2.7    0.2    6.5
N    -2.8    0.8    7.9
C    -1.7    1.4    8.4
N    -2.0    2.1    9.6
N    -0.6    1.4    7.8
H    -3.6   -0.0    3.8
H    -2.9    1.5    3.3
H    -3.8    1.8    5.5
H    -2.0    2.0    5.5
H    -1.8   -0.3    6.5
H    -3.5   -0.5    6.5
H    -3.7    1.3    8.1
H    -1.2    2.4   10.1
H    -2.6    1.6   10.2
H     0.2    1.8    8.4
N    -0.2   -1.9    4.3
C     0.1   -3.3    4.7
H     0.6   -1.3    4.0
H     0.8   -3.4    5.5
H     0.5   -3.9    3.8
H    -0.9   -3.8    5.0
