          35
 sphere cut out from bulk 
C     0.1   -0.4    0.4
C    -0.1   -0.5    1.9
O     0.8   -0.6    2.7
H     0.8   -1.2    0.1
H     0.6    0.5    0.1
H    -0.8   -0.6   -0.2
N    -1.4   -0.4    2.2
C    -1.9   -0.4    3.6
C    -1.0    0.5    4.5
O    -1.0    1.7    4.2
H    -2.2   -0.5    1.5
H    -2.9    0.1    3.6
C    -2.2   -1.8    4.2
C    -1.2   -2.9    4.0
C    -1.2   -3.6    2.6
N    -2.5   -4.2    2.2
C    -3.5   -3.5    1.5
N    -3.0   -2.7    0.5
N    -4.8   -3.7    1.6
H    -3.2   -2.1    3.7
H    -2.5   -1.7    5.2
H    -1.4   -3.7    4.8
H    -0.2   -2.6    4.1
H    -0.5   -4.5    2.6
H    -0.9   -3.0    1.8
H    -2.9   -4.8    2.9
H    -3.7   -2.4   -0.1
H    -2.2   -3.0    0.0
H    -5.0   -4.3    2.4
N    -0.4   -0.0    5.6
C     0.5    0.8    6.3
H    -0.3   -1.0    5.6
H     0.7    0.3    7.3
H     0.1    1.8    6.5
H     1.5    0.9    5.8
