          35
 sphere cut out from bulk 
C    -0.1    0.3   -0.2
C    -0.1    0.2    1.3
O     0.9   -0.1    1.9
H     0.1   -0.7   -0.6
H     0.8    0.9   -0.5
H    -1.0    0.7   -0.6
N    -1.2    0.6    1.9
C    -1.4    0.4    3.4
C    -2.9    0.2    3.7
O    -3.4   -0.7    4.3
H    -2.1    0.7    1.3
H    -1.0   -0.6    3.6
C    -0.8    1.5    4.2
C    -0.4    1.1    5.6
C     1.1    0.7    5.8
N     1.4   -0.4    4.9
C     2.7   -1.0    5.0
N     3.0   -1.7    3.9
N     3.5   -1.0    6.0
H    -1.4    2.4    4.2
H     0.1    1.8    3.6
H    -1.1    0.3    5.9
H    -0.6    1.9    6.3
H     1.2    0.3    6.8
H     1.7    1.6    5.7
H     1.1   -0.3    3.9
H     4.0   -2.0    3.9
H     2.7   -1.4    3.0
H     3.1   -0.5    6.8
N    -3.7    1.2    3.2
C    -5.1    1.3    3.5
H    -3.3    2.1    2.9
H    -5.7    1.8    2.7
H    -5.3    1.8    4.5
H    -5.5    0.3    3.6
