          35
 sphere cut out from bulk 
C    -1.4   -0.6    0.8
C    -0.7   -0.1    2.1
O     0.5    0.2    2.2
H    -1.4   -1.7    0.8
H    -0.8   -0.3   -0.1
H    -2.4   -0.3    0.7
N    -1.6    0.1    3.1
C    -1.1    0.4    4.5
C    -0.1    1.5    4.6
O     0.9    1.4    5.2
H    -2.5   -0.3    3.0
H    -2.0    0.8    5.0
C    -0.6   -0.9    5.2
C    -1.6   -1.5    6.2
C    -3.0   -1.9    5.6
N    -2.9   -2.9    4.6
C    -3.5   -2.7    3.3
N    -3.3   -3.8    2.5
N    -4.0   -1.6    3.0
H     0.3   -0.6    5.7
H    -0.3   -1.6    4.4
H    -1.8   -0.8    7.0
H    -1.1   -2.4    6.7
H    -3.5   -1.0    5.2
H    -3.6   -2.3    6.5
H    -2.3   -3.6    4.7
H    -3.8   -3.8    1.6
H    -3.4   -4.7    3.0
H    -4.5   -1.6    2.1
N    -0.3    2.7    4.0
C    -1.4    3.1    3.1
H     0.4    3.4    4.0
H    -1.5    4.2    3.1
H    -2.4    2.7    3.4
H    -1.3    2.8    2.0
