          35
 sphere cut out from bulk 
C    -0.7    0.2   -0.2
C    -0.4    0.3    1.3
O     0.8    0.3    1.8
H    -0.2   -0.7   -0.6
H    -0.2    1.1   -0.6
H    -1.7    0.2   -0.4
N    -1.5    0.2    2.1
C    -1.7    0.1    3.6
C    -1.0    1.1    4.5
O    -1.4    1.2    5.7
H    -2.4    0.2    1.6
H    -2.7    0.3    3.8
C    -1.5   -1.4    4.1
C    -0.2   -2.1    3.9
C     1.1   -1.5    4.5
N     0.9   -1.2    5.9
C     1.6   -0.2    6.5
N     0.9    0.4    7.6
N     2.8    0.3    6.2
H    -2.3   -1.9    3.6
H    -1.8   -1.3    5.1
H     0.0   -2.2    2.8
H    -0.3   -3.1    4.2
H     1.4   -0.7    4.0
H     1.9   -2.3    4.4
H    -0.0   -1.4    6.3
H     1.4    1.2    8.0
H    -0.0    0.7    7.3
H     3.2   -0.3    5.5
N     0.1    1.8    4.0
C     0.8    2.8    4.8
H     0.5    1.5    3.2
H     1.1    3.6    4.2
H     1.7    2.4    5.3
H     0.1    3.1    5.7
