          35
 sphere cut out from bulk 
C     0.1    0.3    0.1
C     0.1    0.1    1.6
O     1.1   -0.1    2.3
H     0.8    1.1   -0.1
H    -0.9    0.4   -0.3
H     0.6   -0.6   -0.3
N    -1.2    0.2    2.2
C    -1.4    0.0    3.6
C    -1.5   -1.5    4.0
O    -2.5   -2.0    4.2
H    -2.0    0.2    1.6
H    -0.5    0.5    4.1
C    -2.6    0.8    4.0
C    -2.7    0.9    5.6
C    -4.1    1.6    6.0
N    -4.4    2.9    5.5
C    -3.7    4.0    6.0
N    -4.1    5.2    5.2
N    -2.9    4.2    6.9
H    -3.5    0.2    3.7
H    -2.6    1.8    3.6
H    -1.9    1.6    5.9
H    -2.7   -0.0    6.1
H    -4.1    1.6    7.1
H    -4.9    0.9    5.7
H    -4.7    2.9    4.5
H    -3.7    6.0    5.6
H    -5.1    5.3    5.0
H    -2.7    3.3    7.3
N    -0.2   -2.1    4.1
C    -0.1   -3.5    4.3
H     0.5   -1.5    3.7
H     0.8   -3.7    5.0
H     0.1   -4.0    3.4
H    -1.0   -3.9    4.7
