          35
 sphere cut out from bulk 
C     0.4   -1.0    0.9
C     0.2    0.1    1.9
O     1.1    0.7    2.4
H     1.5   -1.0    0.7
H    -0.2   -0.9   -0.0
H     0.1   -2.0    1.3
N    -1.1    0.5    2.2
C    -2.4   -0.1    1.7
C    -3.2    1.1    1.4
O    -3.2    2.2    2.0
H    -1.2    1.3    2.8
H    -2.1   -0.6    0.8
C    -3.1   -0.9    2.7
C    -2.4   -2.2    3.0
C    -2.4   -3.3    1.9
N    -1.5   -4.4    2.1
C    -1.3   -5.3    1.2
N    -0.4   -6.3    1.6
N    -1.8   -5.4   -0.0
H    -4.1   -1.2    2.3
H    -3.2   -0.3    3.6
H    -2.8   -2.7    4.0
H    -1.3   -2.0    3.3
H    -2.2   -2.8    1.0
H    -3.5   -3.6    1.8
H    -1.5   -4.7    3.1
H    -0.2   -7.0    0.8
H     0.4   -6.0    2.1
H    -2.5   -4.7   -0.2
N    -4.1    1.0    0.3
C    -4.2   -0.1   -0.6
H    -4.7    1.8    0.2
H    -3.3   -0.3   -1.2
H    -5.1    0.1   -1.3
H    -4.5   -1.1   -0.1
