          35
 sphere cut out from bulk 
C    -2.7    1.7   -2.6
C    -1.6    1.9   -1.6
O    -0.7    2.7   -1.8
H    -3.5    2.4   -2.4
H    -3.1    0.6   -2.6
H    -2.3    1.9   -3.6
N    -1.5    1.1   -0.5
C    -2.5    0.2    0.2
C    -2.6   -1.2   -0.5
O    -2.4   -1.3   -1.7
H    -0.7    1.4    0.1
H    -2.0    0.1    1.2
C    -3.9    0.8    0.4
C    -3.9    2.0    1.4
C    -4.3    3.4    0.9
N    -3.4    3.9   -0.1
C    -3.6    4.8   -1.1
N    -2.5    5.3   -1.7
N    -4.8    5.3   -1.4
H    -4.6    0.1    0.7
H    -4.3    1.2   -0.6
H    -2.9    2.1    1.9
H    -4.6    1.8    2.2
H    -4.5    4.0    1.7
H    -5.3    3.2    0.3
H    -2.4    3.9    0.3
H    -2.7    5.8   -2.5
H    -1.8    4.5   -1.9
H    -5.5    5.0   -0.7
N    -2.9   -2.2    0.3
C    -3.0   -2.2    1.8
H    -3.0   -3.1   -0.2
H    -2.0   -2.0    2.3
H    -3.3   -3.2    2.1
H    -3.8   -1.6    2.2
