          35
 sphere cut out from bulk 
C     0.5    0.9    1.7
C    -0.1   -0.4    2.3
O     0.7   -1.2    2.9
H     1.5    0.7    1.3
H     0.6    1.7    2.4
H    -0.1    1.3    0.8
N    -1.4   -0.6    2.2
C    -2.5    0.2    1.8
C    -2.6    0.5    0.2
O    -3.3    1.4   -0.2
H    -1.7   -1.4    2.8
H    -3.5   -0.3    2.0
C    -2.7    1.6    2.5
C    -2.9    1.4    4.0
C    -3.0    2.7    4.8
N    -4.1    3.5    4.4
C    -3.9    4.7    3.6
N    -5.1    5.4    3.4
N    -2.8    5.2    3.1
H    -3.5    2.1    2.1
H    -1.8    2.2    2.4
H    -2.1    0.8    4.5
H    -3.9    0.8    4.2
H    -2.1    3.2    4.8
H    -3.2    2.4    5.9
H    -5.0    3.6    5.0
H    -4.9    6.2    2.7
H    -5.9    4.8    3.1
H    -2.0    4.6    3.5
N    -1.9   -0.5   -0.5
C    -1.9   -0.4   -1.9
H    -1.4   -1.1    0.0
H    -2.3   -1.4   -2.3
H    -0.9   -0.3   -2.3
H    -2.6    0.4   -2.3
