          35
 sphere cut out from bulk 
C    -1.1   -0.8    0.4
C    -0.9    0.3    1.4
O    -0.1    1.2    1.1
H    -1.5   -0.4   -0.5
H    -1.9   -1.6    0.8
H    -0.2   -1.3    0.2
N    -1.5    0.2    2.6
C    -1.2    1.1    3.7
C    -2.0    0.6    5.0
O    -1.5    0.8    6.1
H    -1.9   -0.7    2.8
H    -0.2    1.1    4.0
C    -1.6    2.6    3.4
C    -3.1    2.9    3.1
C    -3.9    3.3    4.3
N    -5.3    3.6    4.1
C    -5.7    4.8    3.5
N    -7.1    4.8    3.2
N    -5.0    5.8    3.2
H    -0.9    2.9    2.6
H    -1.2    3.1    4.3
H    -3.5    2.0    2.6
H    -3.1    3.7    2.4
H    -3.4    4.2    4.8
H    -3.8    2.6    5.1
H    -5.8    2.8    3.9
H    -7.4    5.7    2.9
H    -7.7    4.4    3.9
H    -4.0    5.7    3.4
N    -3.2   -0.1    4.8
C    -4.0   -0.5    5.9
H    -3.6   -0.0    3.9
H    -4.6   -1.3    5.6
H    -4.7    0.3    6.2
H    -3.3   -0.7    6.8
