          35
 sphere cut out from bulk 
C    -0.7    1.3   -0.1
C    -0.4    1.3    1.4
O     0.6    1.9    1.8
H    -0.7    2.3   -0.5
H    -1.6    0.8   -0.4
H     0.1    0.8   -0.6
N    -1.3    0.6    2.1
C    -1.4    0.5    3.6
C    -2.3    1.6    4.2
O    -3.5    1.4    4.2
H    -2.1    0.3    1.7
H    -2.0   -0.4    3.8
C    -0.1    0.2    4.4
C     0.5   -1.2    4.1
C     1.3   -1.4    2.8
N     2.4   -0.4    2.6
C     3.6   -0.5    3.3
N     4.3    0.7    3.2
N     4.0   -1.4    4.1
H    -0.3    0.3    5.4
H     0.7    0.9    4.2
H    -0.3   -2.0    4.2
H     1.2   -1.4    5.0
H     0.7   -1.3    1.9
H     1.8   -2.4    2.8
H     2.1    0.5    2.4
H     5.3    0.6    3.5
H     4.3    1.1    2.3
H     3.4   -2.2    4.2
N    -1.8    2.8    4.5
C    -0.5    3.3    4.5
H    -2.5    3.4    4.9
H     0.1    3.0    3.7
H     0.1    3.1    5.5
H    -0.5    4.4    4.4
