          35
 sphere cut out from bulk 
C    -0.3   -1.4    0.6
C    -0.2   -0.6    1.9
O     0.8    0.1    2.2
H     0.1   -2.4    0.8
H     0.4   -0.9   -0.2
H    -1.3   -1.5    0.2
N    -1.4   -0.6    2.6
C    -1.5   -0.1    4.0
C    -0.7    1.2    4.3
O     0.1    1.2    5.2
H    -2.1   -1.3    2.3
H    -2.6    0.3    4.0
C    -1.3   -1.1    5.0
C     0.1   -1.8    5.0
C     0.0   -3.3    5.4
N    -0.8   -4.1    4.5
C    -0.5   -4.3    3.1
N    -1.6   -4.8    2.4
N     0.6   -4.1    2.5
H    -2.1   -1.9    4.9
H    -1.5   -0.7    6.0
H     0.7   -1.3    5.7
H     0.5   -1.7    4.0
H    -0.4   -3.5    6.4
H     1.0   -3.8    5.3
H    -1.8   -4.1    4.7
H    -1.3   -5.1    1.5
H    -2.2   -5.5    2.9
H     1.3   -3.6    3.1
N    -0.9    2.3    3.5
C    -1.7    2.4    2.3
H    -0.3    3.1    3.8
H    -1.1    2.1    1.4
H    -2.0    3.5    2.1
H    -2.6    1.9    2.3
