          35
 sphere cut out from bulk 
C     0.0   -0.4    0.7
C    -0.4   -0.5    2.1
O     0.2   -1.1    3.0
H    -0.5   -1.1    0.1
H     1.1   -0.7    0.7
H    -0.1    0.6    0.3
N    -1.6    0.1    2.5
C    -2.7    0.4    1.6
C    -3.6    1.4    2.3
O    -3.8    1.4    3.5
H    -1.9   -0.0    3.5
H    -2.2    1.0    0.7
C    -3.5   -0.8    0.9
C    -4.6   -1.4    1.8
C    -4.2   -1.9    3.2
N    -3.0   -2.7    3.2
C    -2.4   -3.0    4.5
N    -1.1   -3.6    4.3
N    -2.9   -2.8    5.7
H    -2.7   -1.5    0.7
H    -3.9   -0.4    0.0
H    -4.9   -2.3    1.2
H    -5.4   -0.8    1.9
H    -5.1   -2.5    3.5
H    -4.1   -1.1    3.9
H    -2.8   -3.3    2.5
H    -0.7   -3.8    5.2
H    -0.5   -3.0    3.8
H    -3.8   -2.5    5.6
N    -4.3    2.2    1.5
C    -5.4    3.1    1.9
H    -4.1    2.2    0.5
H    -6.3    3.0    1.5
H    -5.1    4.2    1.8
H    -5.4    3.0    3.0
