          35
 sphere cut out from bulk 
C    -0.9   -0.7    0.8
C    -0.8   -0.3    2.2
O     0.0   -0.9    3.0
H     0.1   -1.1    0.4
H    -1.2    0.1    0.1
H    -1.6   -1.5    0.6
N    -1.6    0.6    2.7
C    -2.4    1.6    2.0
C    -3.5    0.9    1.1
O    -3.8    1.4    0.0
H    -1.4    0.8    3.7
H    -3.0    2.1    2.8
C    -1.6    2.7    1.3
C    -2.4    4.0    1.1
C    -1.5    5.1    0.4
N    -0.2    5.4    1.1
C    -0.2    5.9    2.4
N    -1.2    6.8    2.7
N     0.7    5.7    3.2
H    -1.3    2.3    0.3
H    -0.7    2.8    1.9
H    -2.6    4.4    2.1
H    -3.3    3.8    0.5
H    -2.1    6.0    0.3
H    -1.2    4.8   -0.6
H     0.5    4.8    0.9
H    -1.5    7.4    2.0
H    -1.1    7.2    3.6
H     1.4    5.0    2.9
N    -4.1   -0.2    1.6
C    -5.1   -0.9    0.9
H    -3.7   -0.5    2.5
H    -5.4   -0.3    0.1
H    -6.0   -1.1    1.6
H    -4.7   -1.9    0.6
