          35
 sphere cut out from bulk 
C     1.4    1.9    2.6
C     0.7    0.7    3.4
O     1.1    0.4    4.5
H     1.1    1.9    1.6
H     2.5    1.8    2.8
H     1.1    2.8    3.1
N    -0.3    0.1    2.7
C    -1.1   -0.9    3.4
C    -0.5   -2.3    3.3
O    -0.9   -3.2    2.6
H    -0.6    0.4    1.8
H    -1.2   -0.6    4.5
C    -2.5   -0.9    2.8
C    -3.4    0.3    3.0
C    -4.2    0.7    1.8
N    -3.5    0.9    0.5
C    -2.5    2.0    0.5
N    -3.0    3.2    0.9
N    -1.3    1.7    0.2
H    -3.1   -1.8    3.2
H    -2.4   -1.2    1.7
H    -2.7    1.2    3.1
H    -4.0    0.3    3.9
H    -4.8    1.6    2.0
H    -4.9   -0.1    1.5
H    -3.0    0.1    0.2
H    -2.4    4.0    0.8
H    -4.0    3.4    0.6
H    -0.8    2.5    0.0
N     0.7   -2.4    4.1
C     1.5   -3.6    4.1
H     1.0   -1.5    4.5
H     1.7   -3.9    5.1
H     2.5   -3.4    3.5
H     1.0   -4.4    3.6
