          35
 sphere cut out from bulk 
C     0.2    0.3    1.6
C    -0.5   -0.8    2.2
O     0.1   -1.7    2.8
H     0.8    0.8    2.4
H    -0.4    1.1    1.1
H     1.0   -0.1    0.9
N    -1.9   -1.0    2.0
C    -2.9   -0.1    1.6
C    -2.6    0.6    0.2
O    -3.0    1.8   -0.0
H    -2.2   -1.8    2.5
H    -3.8   -0.7    1.4
C    -3.4    0.9    2.6
C    -2.5    2.0    3.2
C    -1.9    1.9    4.6
N    -1.0    0.8    4.8
C     0.3    1.0    5.1
N     1.0   -0.2    5.3
N     0.8    2.2    5.1
H    -3.8    0.3    3.5
H    -4.3    1.4    2.2
H    -3.0    3.0    3.1
H    -1.6    2.2    2.5
H    -2.8    1.7    5.3
H    -1.4    2.8    4.9
H    -1.4   -0.1    5.1
H     0.8   -1.0    4.6
H     2.0   -0.1    5.4
H     1.8    2.2    5.3
N    -2.1   -0.2   -0.7
C    -1.7    0.2   -2.0
H    -1.7   -1.1   -0.4
H    -0.6    0.4   -2.2
H    -2.2    1.2   -2.2
H    -2.1   -0.5   -2.8
