          35
 sphere cut out from bulk 
C     0.2    0.1    1.0
C     0.2   -0.1    2.5
O     1.3   -0.4    3.1
H     1.2   -0.2    0.6
H     0.1    1.1    0.8
H    -0.6   -0.5    0.5
N    -0.9   -0.0    3.2
C    -2.2    0.5    2.6
C    -2.3    1.9    2.3
O    -3.0    2.3    1.3
H    -0.9   -0.2    4.2
H    -2.4   -0.0    1.7
C    -3.4    0.1    3.6
C    -4.3   -1.1    3.0
C    -5.2   -0.7    1.9
N    -4.6   -0.2    0.7
C    -4.0   -1.0   -0.2
N    -3.0   -0.3   -1.0
N    -4.0   -2.3   -0.3
H    -4.0    0.9    3.7
H    -3.0   -0.2    4.5
H    -4.8   -1.5    3.9
H    -3.6   -1.9    2.7
H    -5.9    0.1    2.3
H    -5.9   -1.6    1.7
H    -4.2    0.8    0.8
H    -2.8   -0.9   -1.8
H    -3.3    0.6   -1.2
H    -4.7   -2.7    0.4
N    -1.6    2.9    3.0
C    -0.8    2.8    4.2
H    -1.8    3.8    2.6
H     0.1    2.3    4.0
H    -1.4    2.2    5.0
H    -0.7    3.8    4.6
