          35
 sphere cut out from bulk 
C     0.1   -0.5    2.5
C    -0.4    0.5    3.5
O     0.1    0.8    4.6
H     1.1   -0.8    2.8
H     0.1   -0.1    1.5
H    -0.5   -1.4    2.5
N    -1.6    1.2    3.2
C    -2.6    0.8    2.2
C    -3.1    2.1    1.5
O    -3.4    3.1    2.1
H    -1.9    1.9    3.8
H    -2.2    0.1    1.5
C    -3.8    0.2    3.0
C    -3.4   -1.1    3.8
C    -4.2   -1.3    5.0
N    -4.2   -0.1    6.0
C    -3.2   -0.1    7.0
N    -2.0   -0.5    6.7
N    -3.5    0.2    8.3
H    -4.6   -0.1    2.3
H    -4.2    0.9    3.7
H    -2.4   -1.1    4.0
H    -3.5   -2.0    3.1
H    -3.9   -2.2    5.5
H    -5.3   -1.4    4.8
H    -5.1    0.2    6.3
H    -1.5   -0.1    5.9
H    -1.4   -0.5    7.5
H    -4.5    0.4    8.4
N    -3.3    1.9    0.2
C    -3.9    3.0   -0.7
H    -3.1    1.0   -0.3
H    -4.8    2.7   -1.2
H    -3.1    3.3   -1.5
H    -4.1    3.8   -0.0
