          35
 sphere cut out from bulk 
C     0.1   -1.3    2.8
C    -0.6   -0.0    2.4
O    -0.0    1.1    2.3
H    -0.1   -1.6    3.8
H     1.2   -1.0    2.7
H    -0.1   -2.1    2.1
N    -2.0   -0.0    2.2
C    -2.9   -1.1    1.9
C    -2.6   -2.4    2.8
O    -2.6   -2.3    4.0
H    -2.4    0.9    2.0
H    -3.9   -0.8    2.3
C    -3.0   -1.3    0.4
C    -1.8   -1.6   -0.5
C    -1.1   -0.3   -1.0
N    -1.9    0.7   -1.7
C    -2.5    1.8   -1.0
N    -3.7    2.2   -1.7
N    -2.2    2.4    0.1
H    -3.6   -0.5   -0.0
H    -3.8   -2.2    0.2
H    -2.1   -2.1   -1.4
H    -1.1   -2.2    0.0
H    -0.2   -0.6   -1.6
H    -0.6    0.3   -0.1
H    -2.5    0.2   -2.4
H    -4.0    3.1   -1.4
H    -3.6    2.2   -2.7
H    -1.3    2.0    0.5
N    -2.5   -3.6    2.1
C    -2.3   -4.8    2.8
H    -2.5   -3.6    1.1
H    -3.1   -5.5    2.6
H    -2.4   -4.6    3.9
H    -1.4   -5.3    2.6
