          35
 sphere cut out from bulk 
C    -0.8    0.3   -0.4
C    -0.1    0.3    0.9
O     1.0    0.8    1.1
H    -1.8    0.9   -0.3
H    -1.1   -0.7   -0.8
H    -0.2    0.8   -1.1
N    -0.7   -0.4    1.9
C    -2.1   -1.0    1.9
C    -3.2    0.1    1.9
O    -4.2   -0.2    1.2
H    -0.2   -0.4    2.8
H    -2.2   -1.6    1.0
C    -2.3   -1.9    3.2
C    -1.4   -3.2    3.1
C    -1.6   -4.1    4.3
N    -0.8   -5.3    4.3
C     0.6   -5.2    4.5
N     1.0   -4.2    5.4
N     1.4   -6.0    3.9
H    -3.3   -2.2    3.2
H    -2.1   -1.4    4.1
H    -0.3   -2.9    3.1
H    -1.6   -3.7    2.2
H    -2.7   -4.4    4.3
H    -1.5   -3.5    5.2
H    -1.1   -6.0    3.6
H     2.0   -4.3    5.5
H     0.5   -4.2    6.2
H     1.0   -6.6    3.2
N    -3.1    1.2    2.6
C    -2.1    1.8    3.5
H    -4.0    1.8    2.4
H    -1.8    1.0    4.2
H    -2.5    2.6    4.0
H    -1.2    2.1    2.9
