          35
 sphere cut out from bulk 
C     1.0   -1.8    2.1
C     0.3   -0.6    2.7
O     0.8    0.1    3.5
H     2.0   -1.5    1.8
H     1.1   -2.5    2.9
H     0.5   -2.2    1.2
N    -0.9   -0.3    2.2
C    -1.8    0.7    2.6
C    -1.1    2.0    3.1
O    -1.4    2.6    4.1
H    -1.3   -1.0    1.5
H    -2.5    1.0    1.8
C    -2.8    0.2    3.7
C    -2.1   -0.4    5.0
C    -3.1   -0.8    6.0
N    -2.5   -1.4    7.2
C    -3.2   -1.9    8.2
N    -2.4   -2.3    9.3
N    -4.5   -2.1    8.3
H    -3.5   -0.5    3.3
H    -3.4    1.1    4.0
H    -1.4    0.4    5.4
H    -1.5   -1.3    4.7
H    -3.8   -1.5    5.6
H    -3.8    0.1    6.3
H    -1.6   -0.9    7.5
H    -3.0   -2.8   10.0
H    -1.6   -2.8    9.1
H    -5.0   -1.7    7.5
N    -0.4    2.7    2.1
C     0.1    2.2    0.8
H     0.1    3.5    2.5
H    -0.8    1.7    0.3
H     0.3    3.1    0.2
H     0.9    1.5    0.9
