          35
 sphere cut out from bulk 
C     0.2   -0.9    0.0
C     0.2   -0.3    1.4
O     1.2   -0.2    2.1
H     1.0   -0.5   -0.5
H    -0.8   -0.6   -0.5
H     0.3   -2.0    0.1
N    -1.0    0.0    1.9
C    -1.3    0.3    3.4
C    -0.4    1.4    4.0
O    -0.2    1.5    5.2
H    -1.8   -0.2    1.4
H    -2.3    0.9    3.3
C    -1.6   -0.9    4.2
C    -0.5   -2.0    4.3
C     0.8   -1.6    5.0
N     0.7   -1.1    6.4
C     0.1   -1.8    7.4
N     0.3   -3.2    7.4
N    -0.6   -1.3    8.4
H    -2.5   -1.4    3.9
H    -1.8   -0.5    5.3
H    -0.2   -2.3    3.3
H    -0.9   -2.8    4.8
H     1.4   -0.8    4.5
H     1.5   -2.5    5.0
H     0.4   -0.1    6.4
H     0.0   -3.6    8.2
H     1.3   -3.4    7.1
H    -0.8   -0.3    8.2
N    -0.0    2.4    3.1
C     0.9    3.5    3.5
H    -0.1    2.2    2.1
H     0.7    4.4    2.9
H     2.0    3.2    3.4
H     0.8    3.7    4.6
