          35
 sphere cut out from bulk 
C     0.9   -1.9    1.5
C     0.6   -0.5    1.8
O     1.5    0.3    2.0
H     0.9   -2.1    0.4
H     0.1   -2.6    1.8
H     1.8   -2.2    1.9
N    -0.7   -0.0    1.6
C    -1.9   -0.7    1.4
C    -2.3   -1.8    2.4
O    -2.4   -3.0    2.1
H    -0.7    1.0    1.8
H    -2.7    0.1    1.5
C    -2.1   -1.3   -0.1
C    -1.6   -0.3   -1.2
C    -2.4    1.0   -1.3
N    -3.9    0.9   -1.4
C    -4.4    0.2   -2.5
N    -3.8    0.5   -3.7
N    -5.5   -0.5   -2.3
H    -3.1   -1.6   -0.2
H    -1.5   -2.2   -0.1
H    -1.7   -0.8   -2.1
H    -0.6   -0.1   -1.1
H    -2.0    1.6   -2.1
H    -2.2    1.6   -0.4
H    -4.3    0.6   -0.6
H    -3.4    1.4   -3.9
H    -4.3    0.1   -4.5
H    -5.9   -0.8   -3.1
N    -2.4   -1.4    3.7
C    -2.3   -0.1    4.3
H    -2.6   -2.2    4.3
H    -2.8    0.7    3.6
H    -1.3    0.3    4.4
H    -2.8   -0.1    5.2
