          35
 sphere cut out from bulk 
C     1.4    1.1    1.5
C     0.7    0.5    2.7
O     1.1    0.7    3.8
H     2.5    1.0    1.6
H     1.2    2.2    1.4
H     1.2    0.6    0.5
N    -0.4   -0.2    2.4
C    -1.4   -0.6    3.4
C    -1.7    0.7    4.3
O    -1.9    1.8    3.8
H    -0.7   -0.2    1.4
H    -2.3   -0.6    2.9
C    -1.2   -1.9    4.0
C     0.2   -2.3    4.5
C     0.3   -2.7    6.0
N    -0.1   -1.7    7.0
C     0.8   -0.8    7.5
N     1.6   -0.2    6.6
N     0.6   -0.6    8.8
H    -1.5   -2.7    3.3
H    -1.9   -2.1    4.8
H     0.9   -1.5    4.3
H     0.6   -3.1    3.9
H     1.4   -3.0    6.2
H    -0.3   -3.6    6.2
H    -0.7   -2.1    7.7
H     2.2    0.6    7.0
H     1.3    0.0    5.7
H     1.2    0.2    9.1
N    -1.7    0.5    5.7
C    -1.9    1.6    6.6
H    -1.3   -0.4    6.0
H    -1.8    1.2    7.6
H    -2.9    2.0    6.5
H    -1.2    2.4    6.4
