          35
 sphere cut out from bulk 
C    -1.0   -0.8   -0.4
C    -0.7   -0.6    1.1
O     0.4   -0.9    1.6
H    -0.7    0.2   -0.9
H    -2.1   -0.9   -0.6
H    -0.4   -1.6   -0.8
N    -1.8   -0.1    1.8
C    -1.6    0.0    3.3
C    -2.0   -1.3    3.9
O    -3.2   -1.7    4.2
H    -2.7   -0.1    1.4
H    -0.6    0.2    3.5
C    -2.3    1.3    3.9
C    -3.9    1.3    4.2
C    -4.8    1.3    2.9
N    -4.8   -0.1    2.4
C    -4.9   -0.4    1.1
N    -5.3    0.6    0.2
N    -4.6   -1.5    0.5
H    -2.0    2.1    3.3
H    -1.8    1.4    4.9
H    -4.0    2.3    4.7
H    -4.1    0.6    4.9
H    -4.4    2.0    2.2
H    -5.8    1.6    3.2
H    -4.5   -0.8    3.0
H    -5.5    0.3   -0.7
H    -6.1    1.2    0.6
H    -4.2   -2.2    1.2
N    -1.0   -2.2    4.0
C    -1.1   -3.6    4.4
H    -0.1   -1.9    3.6
H    -0.3   -3.9    5.1
H    -1.1   -4.2    3.5
H    -2.0   -3.7    5.0
