          35
 sphere cut out from bulk 
C     0.0   -0.9   -0.7
C     0.0   -0.5    0.8
O     0.9   -0.9    1.6
H     1.0   -0.7   -1.1
H    -0.8   -0.4   -1.2
H    -0.1   -2.0   -0.7
N    -1.0    0.3    1.2
C    -1.2    0.7    2.6
C    -2.7    0.9    2.9
O    -3.4    0.2    3.6
H    -1.7    0.5    0.6
H    -1.0   -0.3    3.2
C    -0.2    1.8    3.1
C    -0.6    2.3    4.5
C     0.2    3.5    4.8
N    -0.3    4.3    5.9
C    -1.4    5.2    5.7
N    -1.8    5.8    6.9
N    -1.8    5.4    4.5
H    -0.2    2.6    2.4
H     0.8    1.3    3.1
H    -0.5    1.6    5.3
H    -1.7    2.6    4.5
H     0.3    4.2    4.0
H     1.3    3.2    5.1
H    -0.3    3.9    6.8
H    -1.1    6.0    7.6
H    -2.5    6.5    6.8
H    -2.5    6.1    4.5
N    -3.3    2.0    2.2
C    -2.7    3.2    1.6
H    -4.3    2.1    2.5
H    -2.3    3.9    2.3
H    -3.4    3.6    0.9
H    -1.8    2.9    0.9
