          35
 sphere cut out from bulk 
C    -0.9    0.5   -0.8
C    -0.0    0.3    0.4
O     1.2   -0.0    0.3
H    -1.3    1.5   -0.8
H    -1.7   -0.2   -0.9
H    -0.2    0.4   -1.7
N    -0.6    0.4    1.7
C    -1.9    0.6    2.1
C    -2.8   -0.7    1.8
O    -2.6   -1.7    2.5
H     0.1    0.1    2.4
H    -1.9    0.5    3.2
C    -2.5    2.0    1.8
C    -3.7    2.4    2.6
C    -4.1    3.9    2.5
N    -4.4    4.3    1.1
C    -5.4    3.7    0.3
N    -6.5    3.2    1.0
N    -5.4    3.6   -1.0
H    -2.6    2.2    0.8
H    -1.6    2.7    2.1
H    -3.5    2.2    3.7
H    -4.5    1.7    2.4
H    -3.4    4.5    2.9
H    -5.0    4.0    3.1
H    -3.6    4.6    0.6
H    -7.3    3.0    0.3
H    -6.8    3.8    1.8
H    -4.5    3.9   -1.4
N    -3.8   -0.7    0.8
C    -4.4    0.3   -0.0
H    -4.2   -1.6    0.8
H    -5.2    0.9    0.5
H    -4.9   -0.3   -0.8
H    -3.7    0.9   -0.5
