          35
 sphere cut out from bulk 
C    -1.1   -1.5    0.5
C    -0.6   -0.6    1.6
O     0.4    0.1    1.4
H    -0.3   -2.3    0.3
H    -1.2   -0.9   -0.5
H    -2.0   -2.0    0.7
N    -1.3   -0.7    2.7
C    -1.0    0.1    3.9
C    -0.7   -0.8    5.1
O    -1.4   -1.8    5.4
H    -2.1   -1.3    2.8
H    -0.0    0.6    3.6
C    -2.0    1.3    4.2
C    -3.5    0.9    3.9
C    -4.1   -0.0    5.0
N    -5.2   -0.8    4.5
C    -5.0   -1.9    3.6
N    -3.8   -2.4    3.5
N    -6.0   -2.4    2.9
H    -1.8    2.1    3.5
H    -1.9    1.6    5.2
H    -3.6    0.4    2.9
H    -4.1    1.8    3.9
H    -4.5    0.6    5.8
H    -3.4   -0.7    5.4
H    -6.1   -0.4    4.4
H    -3.2   -2.4    4.4
H    -3.8   -3.3    3.1
H    -6.8   -1.9    2.9
N     0.3   -0.4    5.9
C     0.7   -1.0    7.1
H     0.8    0.4    5.6
H     1.7   -1.5    7.0
H    -0.1   -1.8    7.3
H     0.7   -0.3    8.0
