          35
 sphere cut out from bulk 
C     0.4    1.0   -0.0
C     0.4    0.7    1.4
O     1.5    0.3    2.0
H     0.8    0.2   -0.6
H     1.0    1.9   -0.2
H    -0.6    1.3   -0.4
N    -0.8    0.7    2.1
C    -1.0    0.4    3.5
C    -0.4    1.4    4.5
O    -1.1    2.1    5.3
H    -1.6    1.1    1.6
H    -2.1    0.5    3.7
C    -0.5   -1.0    3.9
C    -0.9   -1.4    5.3
C    -0.1   -2.6    5.8
N     1.3   -2.4    6.1
C     1.7   -1.5    7.0
N     1.0   -1.5    8.2
N     2.8   -0.7    6.8
H     0.6   -1.1    3.8
H    -1.0   -1.7    3.2
H    -2.0   -1.7    5.4
H    -0.8   -0.6    6.0
H    -0.2   -3.5    5.1
H    -0.6   -3.0    6.8
H     1.9   -2.3    5.2
H     1.4   -0.9    9.0
H     0.6   -2.4    8.5
H     3.1   -0.2    7.6
N     0.9    1.6    4.5
C     1.7    2.4    5.4
H     1.4    1.1    3.8
H     1.0    2.8    6.2
H     2.1    3.3    4.9
H     2.5    1.8    5.9
