          35
 sphere cut out from bulk 
C     0.2   -0.5    0.1
C    -0.1    0.1    1.5
O     0.7    0.9    2.0
H     0.3    0.4   -0.6
H    -0.6   -1.1   -0.3
H     1.2   -1.0    0.1
N    -1.2   -0.4    2.1
C    -1.7   -0.2    3.5
C    -3.0    0.6    3.5
O    -4.0    0.1    4.0
H    -1.7   -1.1    1.6
H    -2.1   -1.2    3.8
C    -0.8    0.2    4.6
C     0.4   -0.7    4.8
C     1.3   -0.2    6.0
N     1.8    1.2    5.8
C     3.0    1.5    5.2
N     3.1    0.9    3.9
N     3.8    2.3    5.7
H    -1.4    0.3    5.5
H    -0.3    1.2    4.3
H     1.0   -0.9    3.9
H     0.0   -1.7    5.1
H     2.2   -0.9    6.0
H     0.8   -0.3    6.9
H     1.8    1.6    6.7
H     2.3    0.8    3.3
H     3.9    1.2    3.4
H     4.5    2.6    5.1
N    -3.0    1.9    2.9
C    -2.0    2.6    2.2
H    -4.0    2.3    3.0
H    -1.0    2.3    2.6
H    -2.1    3.7    2.5
H    -2.0    2.5    1.1
