          35
 sphere cut out from bulk 
C    -2.2    1.7    0.1
C    -1.4    1.0    1.1
O    -0.1    0.8    1.0
H    -3.2    1.5    0.1
H    -1.8    1.5   -0.9
H    -2.0    2.8    0.3
N    -2.0    0.4    2.1
C    -1.4   -0.1    3.3
C    -2.4   -0.9    4.2
O    -2.4   -1.0    5.4
H    -3.0    0.8    2.3
H    -0.7   -0.8    2.9
C    -0.6    0.9    4.2
C    -1.4    2.2    4.4
C    -0.5    3.3    5.1
N     0.8    3.5    4.5
C     1.1    4.2    3.4
N     0.4    3.8    2.2
N     1.9    5.2    3.4
H     0.3    1.1    3.7
H    -0.4    0.4    5.2
H    -2.3    2.1    5.0
H    -1.7    2.6    3.4
H    -0.3    3.0    6.1
H    -1.1    4.2    5.1
H     1.5    3.9    5.2
H     0.4    2.8    2.1
H     0.7    4.3    1.4
H     2.1    5.6    2.5
N    -3.3   -1.6    3.4
C    -4.3   -2.6    4.0
H    -3.2   -1.6    2.4
H    -4.0   -3.6    3.8
H    -5.3   -2.4    3.6
H    -4.3   -2.4    5.1
