          35
 sphere cut out from bulk 
C    -1.4   -0.0    0.3
C    -0.7   -0.1    1.7
O     0.5   -0.5    1.8
H    -1.5   -1.1   -0.0
H    -0.7    0.5   -0.4
H    -2.4    0.5    0.4
N    -1.4    0.4    2.7
C    -1.1    0.4    4.2
C    -0.8    1.8    4.8
O    -1.3    2.2    5.8
H    -2.4    0.8    2.5
H    -2.1    0.2    4.7
C    -0.2   -0.7    4.7
C    -0.6   -1.2    6.1
C    -1.8   -2.2    6.0
N    -2.8   -2.1    7.1
C    -3.8   -1.1    7.0
N    -4.4   -1.0    8.2
N    -4.0   -0.5    5.9
H     0.8   -0.3    4.7
H    -0.2   -1.5    4.0
H    -0.9   -0.3    6.7
H     0.2   -1.6    6.6
H    -1.4   -3.2    5.9
H    -2.4   -2.0    5.1
H    -2.4   -2.2    8.0
H    -5.3   -0.5    8.2
H    -4.6   -1.9    8.8
H    -4.8    0.1    6.0
N     0.2    2.5    4.2
C     1.1    2.3    3.0
H     0.4    3.4    4.7
H     2.1    2.8    3.2
H     0.7    2.7    2.1
H     1.2    1.2    2.9
