          35
 sphere cut out from bulk 
C    -0.3   -1.3   -0.1
C    -0.1   -0.9    1.4
O     0.8   -1.4    2.1
H     0.7   -1.1   -0.6
H    -1.1   -0.8   -0.6
H    -0.4   -2.4   -0.2
N    -1.1   -0.1    1.9
C    -1.1    0.3    3.2
C    -2.2   -0.5    3.9
O    -3.4   -0.3    3.7
H    -1.9    0.1    1.3
H    -0.1    0.1    3.6
C    -1.4    1.8    3.4
C    -1.4    2.3    4.9
C    -1.7    3.8    5.0
N    -1.6    4.2    6.4
C    -1.6    5.5    6.9
N    -1.4    6.4    5.9
N    -1.7    5.8    8.1
H    -2.4    2.0    3.0
H    -0.7    2.4    2.8
H    -0.4    2.1    5.3
H    -2.1    1.7    5.4
H    -2.6    4.0    4.5
H    -0.9    4.3    4.5
H    -2.1    3.5    7.1
H    -1.4    7.4    6.3
H    -1.9    6.3    5.1
H    -1.7    5.0    8.8
N    -1.8   -1.5    4.8
C    -0.5   -1.8    5.2
H    -2.6   -2.0    5.2
H    -0.5   -2.8    5.7
H    -0.0   -1.1    6.0
H     0.2   -1.9    4.3
