          35
 sphere cut out from bulk 
C    -0.7   -0.2    0.3
C    -0.4    0.1    1.8
O     0.8    0.4    2.1
H    -1.7   -0.5    0.1
H    -0.0   -0.9   -0.1
H    -0.5    0.8   -0.2
N    -1.4   -0.1    2.6
C    -1.5   -0.0    4.1
C    -1.0    1.3    4.8
O    -1.6    1.6    5.8
H    -2.3   -0.3    2.2
H    -2.6    0.0    4.3
C    -1.0   -1.3    4.9
C     0.5   -1.6    4.9
C     1.0   -2.5    3.8
N     0.4   -3.8    3.7
C    -0.7   -4.2    2.9
N    -1.2   -5.5    3.2
N    -1.2   -3.5    2.0
H    -1.6   -2.1    4.5
H    -1.3   -1.1    5.9
H     0.7   -2.1    5.8
H     1.1   -0.7    4.8
H     2.1   -2.7    3.9
H     0.9   -2.1    2.8
H     0.4   -4.4    4.6
H    -1.8   -5.8    2.5
H    -0.4   -6.2    3.3
H    -0.8   -2.5    2.0
N     0.1    1.9    4.3
C     0.6    3.1    4.9
H     0.6    1.5    3.5
H     1.3    3.6    4.2
H     1.2    2.9    5.8
H    -0.2    3.8    5.2
