          35
 sphere cut out from bulk 
C    -0.7   -0.5   -0.3
C    -0.3   -0.6    1.2
O     0.8   -1.1    1.5
H     0.1   -1.0   -0.9
H    -0.6    0.6   -0.6
H    -1.7   -0.8   -0.5
N    -1.2   -0.2    2.2
C    -2.5    0.2    2.3
C    -3.5   -0.8    3.0
O    -4.2   -0.4    3.9
H    -0.7   -0.4    3.1
H    -2.5    1.0    3.1
C    -3.2    0.9    1.1
C    -2.6    2.2    0.7
C    -3.0    2.7   -0.7
N    -4.5    2.8   -0.9
C    -5.2    1.9   -1.6
N    -6.5    2.2   -1.8
N    -4.7    0.8   -2.0
H    -4.3    1.0    1.4
H    -3.2    0.2    0.2
H    -1.5    2.2    0.7
H    -2.9    3.0    1.4
H    -2.7    2.0   -1.5
H    -2.6    3.7   -0.9
H    -4.9    3.8   -0.9
H    -7.1    1.5   -2.1
H    -7.0    2.8   -1.0
H    -5.3    0.2   -2.4
N    -3.6   -2.1    2.5
C    -2.9   -2.7    1.4
H    -4.2   -2.6    3.0
H    -3.1   -2.1    0.4
H    -3.4   -3.7    1.2
H    -1.9   -2.8    1.5
