          35
 sphere cut out from bulk 
C     0.3    0.5    1.8
C     0.2   -0.7    0.8
O     1.2   -1.4    0.6
H     1.3    0.6    2.2
H    -0.5    0.4    2.6
H     0.1    1.4    1.2
N    -1.0   -1.1    0.3
C    -2.3   -0.6    0.7
C    -3.4   -1.6    0.2
O    -4.4   -1.9    0.9
H    -0.9   -2.0   -0.1
H    -2.4   -0.7    1.8
C    -2.7    0.8    0.3
C    -3.1    1.8    1.4
C    -4.4    1.6    2.0
N    -4.5    0.3    2.8
C    -3.8    0.2    4.0
N    -3.8   -1.1    4.5
N    -3.2    1.2    4.5
H    -1.8    1.2   -0.3
H    -3.5    0.8   -0.5
H    -3.1    2.8    0.9
H    -2.3    1.9    2.1
H    -5.2    1.5    1.3
H    -4.7    2.4    2.7
H    -4.6   -0.5    2.3
H    -3.5   -1.2    5.4
H    -4.6   -1.7    4.2
H    -2.8    1.0    5.4
N    -3.2   -2.1   -1.0
C    -4.2   -2.9   -1.7
H    -2.4   -1.7   -1.6
H    -3.6   -3.7   -2.2
H    -4.8   -2.3   -2.4
H    -4.8   -3.3   -0.9
