          35
 sphere cut out from bulk 
C    -0.3    1.8    0.1
C     0.0    0.7    1.1
O     1.2    0.3    1.3
H     0.7    2.1   -0.4
H    -0.7    2.7    0.6
H    -1.0    1.5   -0.7
N    -1.0    0.2    1.8
C    -2.4    0.6    1.8
C    -2.8    1.3    3.2
O    -2.6    0.7    4.2
H    -0.8   -0.5    2.5
H    -2.5    1.4    1.0
C    -3.4   -0.6    1.6
C    -3.3   -1.1    0.1
C    -4.1   -0.3   -0.9
N    -3.9   -0.8   -2.3
C    -2.9   -0.3   -3.1
N    -2.9   -0.8   -4.4
N    -2.1    0.6   -2.6
H    -4.4   -0.2    1.8
H    -3.2   -1.3    2.3
H    -3.7   -2.2    0.1
H    -2.2   -1.2   -0.2
H    -3.8    0.7   -0.9
H    -5.1   -0.4   -0.7
H    -4.7   -1.2   -2.7
H    -2.1   -0.6   -4.9
H    -3.1   -1.8   -4.4
H    -1.3    0.8   -3.3
N    -3.2    2.6    3.1
C    -3.5    3.3    4.3
H    -3.2    3.0    2.2
H    -2.9    4.2    4.4
H    -3.4    2.7    5.1
H    -4.6    3.7    4.2
