          35
 sphere cut out from bulk 
C    -3.6    3.4    1.8
C    -2.6    2.2    2.0
O    -1.9    1.9    1.1
H    -4.1    3.3    0.9
H    -3.1    4.3    1.9
H    -4.4    3.4    2.6
N    -2.6    1.7    3.2
C    -1.5    0.8    3.6
C    -1.9   -0.7    3.4
O    -2.2   -1.5    4.3
H    -3.2    2.0    4.0
H    -0.7    1.0    2.9
C    -1.1    1.0    5.1
C     0.3    0.5    5.4
C     1.4    1.1    4.5
N     1.5    2.5    4.3
C     0.8    3.1    3.2
N     1.1    2.6    2.0
N     0.0    4.1    3.5
H    -1.8    0.6    5.8
H    -1.1    2.1    5.2
H     0.3   -0.6    5.4
H     0.6    0.8    6.4
H     1.4    0.6    3.5
H     2.4    0.8    4.9
H     1.3    3.0    5.1
H     0.3    2.5    1.3
H     1.7    1.9    1.9
H    -0.2    4.6    2.6
N    -2.0   -1.0    2.1
C    -2.5   -2.3    1.6
H    -1.8   -0.3    1.4
H    -1.7   -2.7    0.8
H    -3.4   -2.2    1.1
H    -2.5   -3.0    2.4
