          35
 sphere cut out from bulk 
C    -2.7    2.2    0.1
C    -1.8    1.6    1.2
O    -0.5    1.6    1.1
H    -2.4    1.8   -0.8
H    -2.5    3.3    0.1
H    -3.7    2.0    0.3
N    -2.4    1.0    2.2
C    -1.8    0.2    3.3
C    -2.6   -1.0    3.5
O    -3.8   -1.1    3.3
H    -3.4    0.8    2.2
H    -0.8   -0.0    2.9
C    -1.6    1.0    4.6
C    -0.8    2.3    4.5
C     0.7    2.1    4.3
N     1.5    3.3    4.3
C     1.6    4.2    3.3
N     1.4    3.8    2.0
N     1.9    5.4    3.6
H    -1.2    0.4    5.4
H    -2.6    1.3    5.0
H    -0.9    2.9    5.4
H    -1.2    3.0    3.7
H     0.9    1.6    3.3
H     1.1    1.4    5.1
H     1.6    3.7    5.2
H     1.2    4.5    1.3
H     0.8    2.9    1.8
H     2.0    6.0    2.8
N    -1.9   -2.1    4.0
C    -2.5   -3.3    4.4
H    -0.9   -2.0    4.2
H    -2.4   -3.5    5.5
H    -2.1   -4.2    3.8
H    -3.6   -3.2    4.2
