          35
 sphere cut out from bulk 
C     0.6   -0.8    0.3
C     0.1   -1.1    1.7
O     0.7   -1.9    2.4
H     1.6   -0.4    0.3
H    -0.1   -0.2   -0.3
H     0.6   -1.8   -0.2
N    -0.9   -0.3    2.1
C    -1.4   -0.3    3.5
C    -3.0   -0.6    3.6
O    -3.3   -1.4    4.4
H    -1.2    0.4    1.4
H    -1.0   -1.2    3.9
C    -1.1    0.9    4.3
C     0.5    1.1    4.4
C     1.1    0.1    5.3
N     2.6    0.3    5.5
C     3.5    0.1    4.5
N     3.3   -1.0    3.6
N     4.6    0.8    4.5
H    -1.5    0.8    5.3
H    -1.5    1.8    3.8
H     0.9    1.2    3.5
H     0.6    2.1    4.9
H     1.0   -0.9    4.9
H     0.7    0.0    6.3
H     2.8    1.1    6.1
H     3.9   -1.0    2.8
H     2.4   -1.3    3.5
H     5.3    0.5    3.9
N    -3.9    0.1    2.8
C    -3.6    1.1    1.8
H    -4.8   -0.2    3.0
H    -4.6    1.6    1.6
H    -3.4    0.7    0.8
H    -2.9    1.8    2.1
