          35
 sphere cut out from bulk 
C     0.5   -1.1    0.4
C     0.2    0.0    1.4
O     1.2    0.4    2.1
H     0.3   -2.0    1.0
H     1.5   -1.1    0.0
H    -0.3   -1.2   -0.4
N    -1.0    0.6    1.5
C    -2.3    0.4    0.8
C    -2.7   -1.1    0.7
O    -2.3   -1.9    1.5
H    -1.0    1.3    2.2
H    -3.0    0.8    1.5
C    -2.4    1.4   -0.5
C    -1.3    1.2   -1.6
C    -1.5    0.1   -2.5
N    -0.4    0.1   -3.5
C    -0.5   -0.9   -4.5
N     0.6   -0.8   -5.4
N    -1.5   -1.6   -4.7
H    -2.3    2.4   -0.1
H    -3.4    1.3   -0.9
H    -0.3    1.2   -1.1
H    -1.3    2.2   -2.1
H    -2.4    0.1   -3.1
H    -1.5   -0.9   -2.0
H     0.5    0.3   -3.2
H     0.9   -1.7   -5.9
H     1.4   -0.2   -5.2
H    -1.4   -2.2   -5.5
N    -3.5   -1.4   -0.4
C    -4.0   -2.7   -0.6
H    -3.7   -0.7   -1.1
H    -5.1   -2.8   -0.6
H    -3.6   -3.4    0.2
H    -3.6   -3.1   -1.6
