          35
 sphere cut out from bulk 
C    -0.1   -0.6   -0.3
C    -0.3   -0.5    1.2
O     0.6   -0.7    2.0
H     0.5   -1.5   -0.5
H     0.4    0.3   -0.7
H    -1.1   -0.7   -0.8
N    -1.6   -0.1    1.6
C    -2.0    0.3    2.9
C    -1.6    1.7    3.3
O    -0.7    2.3    2.8
H    -2.3   -0.0    0.9
H    -3.1    0.3    2.9
C    -1.6   -0.7    4.0
C    -1.9   -2.2    3.8
C    -3.3   -2.6    3.5
N    -3.7   -2.3    2.1
C    -4.6   -1.3    1.7
N    -5.7   -1.1    2.5
N    -4.4   -0.6    0.6
H    -2.1   -0.5    5.0
H    -0.5   -0.6    4.2
H    -1.6   -2.8    4.6
H    -1.2   -2.6    2.9
H    -4.0   -2.1    4.1
H    -3.5   -3.7    3.6
H    -3.0   -2.4    1.4
H    -6.4   -0.5    2.2
H    -6.1   -1.9    3.0
H    -5.2   -0.1    0.3
N    -2.4    2.3    4.3
C    -3.6    1.8    5.0
H    -2.0    3.2    4.5
H    -4.2    2.7    5.2
H    -3.3    1.3    5.9
H    -4.2    1.2    4.3
