          35
 sphere cut out from bulk 
C     2.0    1.4    1.0
C     1.2    0.9    2.2
O     1.5    1.3    3.4
H     3.1    1.1    1.1
H     2.0    2.5    1.0
H     1.6    0.9    0.1
N     0.2    0.0    2.0
C    -0.7   -0.7    2.9
C    -2.1   -0.1    2.9
O    -3.1   -0.9    2.5
H     0.1   -0.2    1.0
H    -0.8   -1.6    2.5
C    -0.1   -0.9    4.3
C    -0.9   -2.0    5.1
C    -1.9   -1.5    6.1
N    -3.2   -1.0    5.5
C    -3.8    0.1    6.0
N    -4.8    0.5    5.1
N    -3.4    0.7    7.0
H    -0.1    0.0    4.9
H     0.9   -1.2    4.2
H    -0.1   -2.5    5.7
H    -1.3   -2.7    4.5
H    -1.6   -0.7    6.8
H    -2.2   -2.3    6.8
H    -3.4   -1.3    4.6
H    -5.5    1.1    5.6
H    -5.2   -0.2    4.5
H    -4.0    1.6    7.2
N    -2.4    1.2    3.2
C    -1.6    2.2    3.9
H    -3.4    1.4    3.3
H    -0.5    1.9    3.8
H    -1.8    2.3    4.9
H    -1.7    3.2    3.4
