          35
 sphere cut out from bulk 
C     1.6   -0.1   -0.1
C     1.0   -1.0    1.0
O     1.6   -1.9    1.5
H     2.5    0.3    0.3
H     0.9    0.6   -0.4
H     1.9   -0.8   -0.9
N    -0.3   -0.8    1.4
C    -1.1   -1.6    2.2
C    -2.5   -1.7    1.6
O    -2.9   -0.8    0.8
H    -0.9   -0.1    0.8
H    -0.6   -2.6    2.3
C    -1.2   -1.1    3.7
C     0.1   -0.8    4.3
C     1.0   -2.0    4.7
N     0.4   -2.8    5.8
C    -0.1   -4.0    5.7
N    -0.5   -4.6    6.9
N    -0.3   -4.5    4.5
H    -1.8   -1.8    4.3
H    -1.8   -0.1    3.6
H    -0.1   -0.1    5.2
H     0.7   -0.1    3.7
H     2.0   -1.6    5.0
H     1.1   -2.6    3.9
H     0.3   -2.3    6.7
H    -0.8   -5.5    6.8
H     0.2   -4.5    7.6
H    -0.6   -5.5    4.6
N    -3.3   -2.7    1.9
C    -3.1   -3.9    2.7
H    -4.2   -2.6    1.5
H    -3.2   -4.8    2.2
H    -3.7   -3.9    3.6
H    -2.0   -3.9    3.1
