          35
 sphere cut out from bulk 
C    -0.5    1.6   -0.5
C    -0.1    0.5    0.4
O     1.1    0.1    0.6
H    -1.1    1.2   -1.3
H     0.4    2.0   -0.9
H    -1.1    2.4   -0.0
N    -1.1   -0.1    1.2
C    -2.5    0.1    1.1
C    -3.1    1.2    2.1
O    -4.2    1.5    2.0
H    -0.7   -0.9    1.8
H    -2.8    0.5    0.1
C    -3.2   -1.2    1.3
C    -3.0   -2.2    0.2
C    -3.6   -3.6    0.5
N    -3.1   -4.2    1.7
C    -2.1   -5.2    1.7
N    -1.3   -5.2    0.5
N    -1.9   -6.2    2.6
H    -4.3   -1.0    1.4
H    -2.9   -1.6    2.3
H    -2.0   -2.3   -0.0
H    -3.5   -1.9   -0.7
H    -3.5   -4.3   -0.3
H    -4.7   -3.5    0.7
H    -3.7   -4.3    2.5
H    -1.0   -4.3    0.2
H    -0.6   -5.9    0.6
H    -2.6   -6.1    3.3
N    -2.2    1.7    2.9
C    -2.5    2.8    3.9
H    -1.2    1.4    2.9
H    -2.3    2.4    4.9
H    -3.6    3.0    3.8
H    -1.9    3.7    3.7
