          35
 sphere cut out from bulk 
C    -0.7   -0.6   -0.2
C    -0.5   -0.6    1.3
O     0.6   -0.9    1.8
H    -1.5   -1.3   -0.5
H     0.3   -0.9   -0.6
H    -1.0    0.4   -0.6
N    -1.6   -0.4    2.1
C    -2.9    0.3    1.9
C    -3.5    0.0    0.5
O    -3.8   -1.1    0.1
H    -1.4   -0.3    3.1
H    -3.6   -0.2    2.5
C    -2.9    1.8    2.4
C    -1.7    2.6    1.9
C    -1.1    3.5    3.0
N    -0.7    2.8    4.2
C     0.0    1.6    4.2
N     1.2    1.6    3.4
N    -0.4    0.6    4.8
H    -2.8    1.7    3.5
H    -3.9    2.2    2.2
H    -2.0    3.3    1.1
H    -0.9    2.0    1.5
H    -1.8    4.3    3.4
H    -0.2    4.0    2.6
H    -1.4    2.7    4.9
H     1.4    2.4    2.8
H     1.4    0.7    2.9
H     0.3   -0.2    4.9
N    -3.6    1.1   -0.3
C    -4.1    1.0   -1.7
H    -3.3    2.0   -0.0
H    -3.4    1.1   -2.4
H    -4.9    1.8   -1.9
H    -4.6    0.1   -1.8
