          35
 sphere cut out from bulk 
C     0.6    1.6    0.6
C     0.5    1.4    2.1
O     1.4    1.6    2.9
H     0.9    2.6    0.4
H    -0.3    1.4    0.0
H     1.4    0.9    0.2
N    -0.7    0.9    2.5
C    -1.2    0.5    3.9
C    -1.2    1.6    5.0
O    -2.1    1.6    5.8
H    -1.4    0.8    1.8
H    -2.3    0.4    3.7
C    -0.7   -0.8    4.4
C     0.8   -0.9    4.7
C     1.6   -1.5    3.6
N     3.1   -1.4    3.8
C     3.8   -2.1    4.7
N     3.4   -3.4    5.0
N     4.8   -1.5    5.2
H    -1.0   -1.6    3.7
H    -1.3   -1.0    5.3
H     0.9   -1.6    5.6
H     1.2    0.0    5.0
H     1.4   -1.0    2.6
H     1.4   -2.6    3.4
H     3.5   -0.5    3.6
H     3.6   -3.7    5.9
H     2.4   -3.6    4.8
H     5.4   -2.1    5.9
N    -0.2    2.5    5.0
C    -0.1    3.5    6.0
H     0.6    2.3    4.3
H     0.7    4.2    5.7
H     0.3    3.0    7.0
H    -1.0    4.0    6.2
