          35
 sphere cut out from bulk 
C    -1.0   -0.2   -0.4
C    -0.8   -0.1    1.1
O     0.3    0.3    1.6
H    -0.8    0.7   -0.9
H    -2.1   -0.5   -0.6
H    -0.3   -1.0   -0.8
N    -1.9   -0.3    1.9
C    -1.9   -0.2    3.4
C    -2.1   -1.7    3.9
O    -3.2   -2.1    4.1
H    -2.8   -0.7    1.5
H    -0.9    0.1    3.6
C    -3.0    0.7    3.9
C    -2.8    1.3    5.3
C    -2.9    0.3    6.5
N    -1.7   -0.5    6.6
C    -1.6   -1.8    7.2
N    -2.8   -2.5    7.1
N    -0.6   -2.3    7.8
H    -3.9    0.2    3.8
H    -3.0    1.6    3.2
H    -3.6    2.1    5.4
H    -1.8    1.8    5.3
H    -3.7   -0.4    6.3
H    -3.0    0.9    7.4
H    -0.8    0.0    6.8
H    -2.6   -3.5    7.4
H    -3.2   -2.5    6.1
H     0.1   -1.6    7.9
N    -1.0   -2.5    4.1
C     0.4   -2.1    4.1
H    -1.2   -3.4    4.5
H     0.6   -1.3    3.3
H     1.1   -2.9    3.9
H     0.7   -1.7    5.1
