          35
 sphere cut out from bulk 
C     0.7   -1.2    1.2
C     0.7    0.3    1.5
O     1.8    0.9    1.6
H     0.2   -1.4    0.2
H     0.1   -1.8    1.9
H     1.7   -1.6    1.1
N    -0.5    0.9    1.6
C    -1.8    0.4    1.4
C    -2.2    0.1   -0.0
O    -3.1   -0.8   -0.2
H    -0.3    1.9    1.8
H    -1.9   -0.6    1.9
C    -2.9    1.3    2.1
C    -2.9    2.8    1.6
C    -4.1    3.5    2.3
N    -4.2    4.9    2.0
C    -4.7    5.3    0.8
N    -4.6    6.7    0.5
N    -5.2    4.4   -0.1
H    -2.6    1.3    3.2
H    -3.8    0.8    2.0
H    -3.1    2.8    0.6
H    -2.0    3.3    1.8
H    -3.9    3.5    3.4
H    -5.0    3.0    2.1
H    -3.4    5.5    2.3
H    -4.8    7.2    1.3
H    -5.1    7.0   -0.3
H    -5.7    4.8   -0.8
N    -1.7    0.8   -1.1
C    -0.7    1.9   -1.2
H    -2.1    0.4   -2.0
H    -1.0    2.7   -0.6
H    -0.8    2.2   -2.2
H     0.3    1.6   -0.9
