          35
 sphere cut out from bulk 
C    -1.2    1.9    2.7
C    -0.3    0.6    2.4
O     0.8    0.5    2.7
H    -0.5    2.5    3.4
H    -2.1    1.6    3.3
H    -1.5    2.4    1.8
N    -1.0   -0.4    1.7
C    -2.4   -0.4    1.2
C    -3.4   -0.8    2.2
O    -4.6   -0.7    2.0
H    -0.4   -1.2    1.5
H    -2.6    0.7    1.0
C    -2.5   -1.1   -0.1
C    -2.8   -2.6   -0.0
C    -1.7   -3.6    0.4
N    -0.6   -3.6   -0.5
C     0.7   -3.1   -0.2
N     1.6   -3.4   -1.1
N     0.8   -2.4    0.9
H    -1.6   -1.0   -0.7
H    -3.4   -0.7   -0.6
H    -3.2   -3.0   -1.0
H    -3.7   -2.8    0.6
H    -2.1   -4.6    0.5
H    -1.3   -3.3    1.4
H    -0.6   -4.4   -1.2
H     1.4   -3.5   -2.1
H     2.5   -2.9   -1.0
H     1.8   -2.0    1.0
N    -3.0   -1.4    3.4
C    -3.8   -1.9    4.4
H    -1.9   -1.5    3.5
H    -3.6   -1.4    5.4
H    -3.6   -3.0    4.6
H    -4.8   -1.8    4.1
