          35
 sphere cut out from bulk 
C    -0.6   -1.3   -0.9
C     0.1   -0.3    0.1
O     1.2   -0.1   -0.0
H     0.2   -2.0   -1.2
H    -1.0   -0.8   -1.8
H    -1.4   -1.9   -0.5
N    -0.7    0.3    1.0
C    -2.1    0.1    1.4
C    -2.5   -1.4    1.7
O    -3.4   -2.0    1.1
H    -0.2    0.9    1.6
H    -2.3    0.7    2.3
C    -3.1    0.7    0.3
C    -2.9    2.2    0.1
C    -3.9    2.7   -1.0
N    -3.8    4.2   -1.2
C    -4.2    5.1   -0.2
N    -5.3    4.7    0.5
N    -3.4    6.1   -0.1
H    -4.1    0.5    0.7
H    -3.0    0.1   -0.6
H    -1.9    2.4   -0.2
H    -3.1    2.7    1.0
H    -4.9    2.5   -0.7
H    -3.7    2.2   -1.9
H    -2.9    4.4   -1.6
H    -5.7    5.5    1.1
H    -6.0    4.2   -0.0
H    -3.9    6.8    0.5
N    -1.8   -2.0    2.7
C    -0.7   -1.4    3.5
H    -2.0   -2.9    2.9
H     0.3   -1.4    3.0
H    -0.6   -2.0    4.4
H    -0.9   -0.4    3.9
