          35
 sphere cut out from bulk 
C     0.2   -1.5    0.8
C     0.1   -1.2    2.3
O     1.0   -1.5    3.1
H     0.3   -0.7    0.1
H    -0.6   -2.2    0.4
H     1.2   -2.1    0.7
N    -1.0   -0.5    2.6
C    -2.2   -0.1    1.8
C    -2.6    1.3    2.2
O    -3.5    1.4    3.1
H    -1.1   -0.3    3.6
H    -1.8   -0.1    0.8
C    -3.3   -1.2    1.9
C    -4.3   -1.2    0.7
C    -5.2    0.1    0.7
N    -6.0    0.4    1.8
C    -7.1   -0.4    2.2
N    -7.5   -0.1    3.5
N    -7.8   -1.2    1.5
H    -3.8   -1.1    2.9
H    -2.8   -2.2    1.9
H    -5.0   -2.1    0.8
H    -3.8   -1.3   -0.2
H    -5.9   -0.1   -0.2
H    -4.6    1.0    0.4
H    -5.4    0.7    2.6
H    -8.5   -0.5    3.6
H    -7.5    0.9    3.8
H    -7.3   -1.4    0.6
N    -2.0    2.3    1.7
C    -0.8    2.3    0.8
H    -2.3    3.2    2.1
H    -0.6    3.3    0.5
H    -1.1    1.8   -0.1
H     0.1    1.8    1.3
