          35
 sphere cut out from bulk 
C    -0.1   -0.1    0.5
C    -0.5   -0.6    1.8
O     0.2   -1.3    2.5
H     1.0   -0.2    0.3
H    -0.3    1.0    0.3
H    -0.7   -0.6   -0.4
N    -1.8   -0.3    2.3
C    -2.9    0.1    1.5
C    -3.8    1.2    2.2
O    -5.0    1.1    2.2
H    -2.0   -0.9    3.1
H    -2.5    0.6    0.6
C    -3.8   -1.1    1.0
C    -4.7   -1.9    2.0
C    -4.2   -2.0    3.5
N    -2.9   -2.6    3.6
C    -2.3   -2.7    4.9
N    -1.0   -3.2    4.8
N    -2.8   -2.4    6.0
H    -3.0   -1.8    0.6
H    -4.4   -0.8    0.2
H    -4.8   -2.9    1.6
H    -5.6   -1.4    2.0
H    -5.0   -2.7    4.0
H    -4.3   -1.1    4.0
H    -2.6   -3.3    2.9
H    -0.5   -3.2    5.7
H    -0.4   -2.7    4.0
H    -3.8   -2.2    6.0
N    -3.2    2.2    2.8
C    -1.8    2.6    2.8
H    -3.9    2.9    3.2
H    -1.2    2.0    3.5
H    -1.8    3.7    3.1
H    -1.4    2.6    1.8
