          35
 sphere cut out from bulk 
C     1.1   -0.2    0.4
C     0.8    0.1    1.8
O     1.7    0.3    2.7
H     1.4   -1.3    0.4
H     2.0    0.4    0.1
H     0.3   -0.1   -0.3
N    -0.6    0.2    2.1
C    -1.1    0.3    3.5
C    -0.5    1.5    4.3
O    -0.5    1.4    5.5
H    -1.2   -0.1    1.4
H    -2.2    0.7    3.3
C    -1.2   -1.0    4.2
C     0.1   -1.7    4.6
C    -0.1   -3.0    5.4
N    -0.9   -4.0    4.7
C    -2.2   -4.1    4.6
N    -2.9   -3.8    5.8
N    -2.8   -4.5    3.5
H    -1.9   -1.6    3.6
H    -1.8   -0.8    5.2
H     0.7   -1.0    5.1
H     0.6   -1.9    3.7
H    -0.7   -2.7    6.3
H     0.8   -3.4    5.7
H    -0.5   -4.3    3.8
H    -3.9   -4.1    5.8
H    -2.4   -4.1    6.7
H    -3.8   -4.7    3.6
N    -0.2    2.6    3.6
C     0.5    3.7    4.2
H    -0.1    2.5    2.6
H     0.2    4.7    3.7
H     1.6    3.6    4.2
H     0.2    3.8    5.3
