          35
 sphere cut out from bulk 
C     0.8    1.5    0.7
C     0.2    0.8    1.9
O     0.8    0.7    2.9
H     0.1    1.8   -0.1
H     1.4    2.3    1.0
H     1.5    0.8    0.2
N    -1.1    0.5    1.8
C    -1.9   -0.3    2.7
C    -2.2    0.4    4.0
O    -2.6   -0.3    5.0
H    -1.5    0.6    0.8
H    -2.9   -0.5    2.2
C    -1.2   -1.7    3.0
C    -1.0   -2.5    1.8
C    -0.4   -3.9    2.1
N    -1.4   -4.8    2.8
C    -1.1   -5.3    4.1
N    -0.3   -4.5    4.9
N    -1.6   -6.5    4.3
H    -1.9   -2.2    3.7
H    -0.3   -1.5    3.5
H    -0.3   -2.0    1.1
H    -1.9   -2.7    1.2
H    -0.1   -4.5    1.2
H     0.5   -3.8    2.7
H    -1.9   -5.4    2.3
H    -0.3   -4.9    5.9
H    -0.5   -3.5    4.9
H    -1.5   -6.7    5.3
N    -2.1    1.7    4.0
C    -2.4    2.5    5.2
H    -1.7    2.2    3.2
H    -3.0    3.4    4.9
H    -1.5    2.9    5.7
H    -2.9    1.9    5.9
