          35
 sphere cut out from bulk 
C    -0.2    0.7    0.2
C    -0.8   -0.5    0.8
O    -1.0   -1.5    0.1
H     0.8    0.5   -0.2
H    -0.0    1.5    1.0
H    -0.8    1.1   -0.6
N    -1.1   -0.5    2.1
C    -1.6   -1.7    2.8
C    -3.1   -1.7    2.7
O    -3.9   -1.5    3.6
H    -0.9    0.3    2.6
H    -1.2   -2.6    2.3
C    -1.2   -1.7    4.3
C     0.3   -1.9    4.5
C     0.7   -1.8    6.0
N     2.2   -2.0    6.1
C     2.9   -1.8    7.3
N     2.2   -1.2    8.3
N     4.1   -2.0    7.4
H    -1.7   -2.5    4.8
H    -1.5   -0.7    4.8
H     0.9   -1.1    4.0
H     0.6   -2.8    4.0
H     0.1   -2.6    6.5
H     0.5   -0.9    6.4
H     2.6   -2.7    5.5
H     2.7   -1.1    9.1
H     1.2   -1.5    8.5
H     4.6   -2.3    6.6
N    -3.5   -2.1    1.4
C    -5.0   -2.1    1.0
H    -2.8   -2.2    0.7
H    -5.2   -3.0    0.5
H    -5.2   -1.2    0.4
H    -5.6   -2.0    1.9
