          35
 sphere cut out from bulk 
C     0.7   -0.5    0.1
C     0.5   -0.2    1.6
O     1.5   -0.2    2.4
H     1.4   -1.4    0.1
H     1.1    0.4   -0.4
H    -0.3   -0.8   -0.3
N    -0.8    0.2    2.0
C    -1.1    0.9    3.2
C    -0.6    2.3    3.2
O     0.4    2.7    2.5
H    -1.4    0.3    1.2
H    -2.2    0.9    3.2
C    -0.7   -0.0    4.4
C    -0.8    0.6    5.9
C     0.5    1.1    6.4
N     1.0    2.4    5.8
C     2.2    2.6    5.3
N     2.8    1.5    4.6
N     2.9    3.7    5.4
H     0.3   -0.3    4.3
H    -1.3   -0.9    4.4
H    -1.1   -0.3    6.5
H    -1.6    1.3    6.0
H     1.3    0.4    6.3
H     0.4    1.2    7.5
H     0.6    3.2    6.3
H     3.7    1.8    4.2
H     2.2    1.0    4.0
H     2.5    4.3    6.0
N    -1.4    3.2    3.9
C    -1.0    4.6    4.1
H    -2.2    2.9    4.4
H    -1.2    4.9    5.1
H    -1.5    5.3    3.4
H     0.1    4.7    3.9
