          35
 sphere cut out from bulk 
C    -1.5   -2.4    0.4
C    -1.1   -1.5    1.6
O    -0.6   -2.0    2.6
H    -2.3   -3.1    0.7
H    -0.7   -3.0    0.1
H    -1.8   -1.8   -0.5
N    -1.4   -0.2    1.4
C    -1.3    0.8    2.5
C     0.0    0.6    3.3
O     0.1    0.5    4.5
H    -2.0    0.1    0.6
H    -1.3    1.8    2.0
C    -2.5    0.8    3.5
C    -3.0    2.2    3.9
C    -2.1    3.0    4.8
N    -1.7    2.3    6.0
C    -2.5    2.2    7.1
N    -2.0    1.4    8.1
N    -3.6    2.8    7.1
H    -2.3    0.2    4.3
H    -3.4    0.3    2.9
H    -4.0    2.1    4.4
H    -3.2    2.8    3.0
H    -2.6    3.9    5.1
H    -1.1    3.3    4.2
H    -1.0    1.6    5.8
H    -2.7    1.0    8.7
H    -1.2    0.8    7.9
H    -4.1    2.7    8.0
N     1.2    0.7    2.6
C     1.4    0.8    1.1
H     2.0    0.6    3.1
H     1.3   -0.2    0.6
H     2.4    1.2    0.9
H     0.6    1.5    0.7
