          35
 sphere cut out from bulk 
C    -0.1   -0.7   -0.6
C     0.3   -1.1    0.8
O     1.1   -2.0    1.1
H     0.2    0.4   -0.7
H    -1.2   -0.7   -0.8
H     0.4   -1.3   -1.3
N    -0.4   -0.5    1.9
C    -1.2    0.6    1.8
C    -0.4    1.9    1.6
O     0.7    2.1    2.0
H     0.0   -0.8    2.8
H    -1.9    0.5    1.0
C    -2.1    0.8    3.1
C    -1.5    1.4    4.4
C    -0.3    0.6    5.0
N     0.1    1.2    6.3
C     0.9    0.5    7.2
N     1.2    1.3    8.2
N     1.3   -0.7    7.1
H    -2.5   -0.2    3.3
H    -3.0    1.4    2.8
H    -2.2    1.5    5.1
H    -1.1    2.4    4.1
H     0.5    0.5    4.3
H    -0.7   -0.4    5.2
H     0.2    2.2    6.2
H     1.8    0.8    8.9
H     0.5    1.9    8.7
H     1.1   -1.1    6.2
N    -1.1    2.9    0.9
C    -0.5    4.2    0.6
H    -2.0    2.7    0.5
H    -0.4    4.4   -0.5
H     0.5    4.2    1.1
H    -1.1    5.0    1.0
