          35
 sphere cut out from bulk 
C    -4.3    3.4    2.6
C    -3.0    2.6    2.5
O    -2.0    3.0    1.8
H    -5.1    2.9    3.1
H    -4.6    3.8    1.6
H    -4.1    4.3    3.2
N    -3.0    1.4    3.0
C    -1.9    0.5    3.0
C    -2.4   -0.9    3.1
O    -3.4   -1.2    3.7
H    -3.8    1.0    3.5
H    -1.4    0.6    2.0
C    -0.8    0.8    4.0
C     0.7    0.7    3.6
C     1.1    1.6    2.5
N     0.8    3.0    2.8
C     1.4    3.7    3.9
N     2.7    3.4    4.2
N     0.6    4.5    4.5
H    -1.0    0.2    4.9
H    -0.9    1.9    4.3
H     0.8   -0.4    3.3
H     1.3    0.8    4.5
H     0.6    1.4    1.5
H     2.2    1.5    2.3
H    -0.1    3.3    2.5
H     3.1    2.6    3.7
H     3.0    3.5    5.1
H     1.2    5.1    5.2
N    -1.6   -1.9    2.6
C    -1.9   -3.3    2.7
H    -0.8   -1.6    2.1
H    -2.8   -3.4    3.3
H    -1.0   -3.8    3.2
H    -2.0   -3.8    1.8
