          35
 sphere cut out from bulk 
C    -1.0    1.9    0.9
C    -0.9    0.6    1.8
O     0.2    0.3    2.4
H    -0.7    2.7    1.5
H    -2.0    2.0    0.5
H    -0.3    1.7    0.1
N    -2.0   -0.0    2.0
C    -2.1   -1.3    2.8
C    -3.3   -2.1    2.3
O    -4.1   -1.5    1.5
H    -2.9    0.1    1.5
H    -1.1   -1.8    2.6
C    -2.1   -1.1    4.3
C    -3.5   -0.7    4.9
C    -3.5   -0.6    6.4
N    -4.8   -0.7    7.0
C    -5.5   -1.9    7.0
N    -6.8   -1.7    7.6
N    -5.0   -3.0    6.7
H    -1.4   -0.3    4.5
H    -1.8   -2.0    4.8
H    -4.2   -1.4    4.6
H    -3.8    0.3    4.4
H    -3.0    0.3    6.8
H    -3.0   -1.5    6.8
H    -5.4    0.2    6.9
H    -7.5   -2.4    7.3
H    -7.2   -0.8    7.8
H    -5.6   -3.8    6.9
N    -3.5   -3.4    2.6
C    -2.7   -4.1    3.6
H    -4.3   -3.7    2.3
H    -2.8   -5.2    3.4
H    -3.0   -4.0    4.6
H    -1.6   -3.9    3.5
