          35
 sphere cut out from bulk 
C     0.8    0.5    0.5
C     0.3   -0.5    1.5
O     1.0   -1.3    2.1
H     1.3   -0.0   -0.3
H     1.6    1.1    1.0
H     0.1    1.2    0.1
N    -1.1   -0.5    1.7
C    -1.7   -1.5    2.5
C    -3.2   -1.6    2.1
O    -3.7   -2.7    1.6
H    -1.6    0.1    1.1
H    -1.3   -2.5    2.3
C    -1.6   -1.2    4.0
C    -1.7   -2.5    5.0
C    -3.0   -3.2    4.9
N    -4.2   -2.3    5.0
C    -5.5   -2.7    4.7
N    -5.6   -3.6    3.7
N    -6.5   -2.2    5.5
H    -2.3   -0.4    4.3
H    -0.6   -0.8    4.2
H    -1.6   -2.1    6.0
H    -0.9   -3.2    4.8
H    -3.0   -4.0    5.6
H    -3.1   -3.7    3.9
H    -4.2   -1.8    5.9
H    -6.6   -3.8    3.4
H    -5.0   -3.5    2.9
H    -7.4   -2.5    5.1
N    -3.9   -0.5    2.2
C    -5.4   -0.5    1.9
H    -3.5    0.2    2.8
H    -5.6   -1.2    1.2
H    -5.6    0.5    1.5
H    -5.9   -0.6    2.9
