          35
 sphere cut out from bulk 
C    -0.3   -0.3   -0.1
C    -0.2   -0.2    1.4
O     0.8    0.0    2.0
H     0.1    0.6   -0.6
H    -1.3   -0.4   -0.5
H     0.3   -1.2   -0.4
N    -1.4   -0.2    2.1
C    -1.5   -0.0    3.5
C    -1.2   -1.4    4.2
O    -2.1   -2.1    4.7
H    -2.3   -0.4    1.6
H    -0.7    0.7    3.8
C    -2.9    0.5    3.9
C    -2.9    1.0    5.4
C    -4.3    1.5    5.8
N    -4.3    1.9    7.2
C    -5.3    2.6    7.8
N    -6.3    3.2    6.9
N    -5.4    2.9    9.0
H    -3.6   -0.2    3.7
H    -3.1    1.4    3.3
H    -2.2    1.8    5.6
H    -2.7    0.1    6.0
H    -5.1    0.7    5.5
H    -4.6    2.4    5.2
H    -3.8    1.3    7.8
H    -7.0    3.6    7.4
H    -6.7    2.5    6.2
H    -4.6    2.6    9.5
N     0.1   -1.7    4.3
C     0.6   -3.0    4.8
H     0.7   -1.1    3.7
H     1.5   -2.8    5.4
H     0.8   -3.6    4.0
H    -0.2   -3.4    5.4
