          35
 sphere cut out from bulk 
C    -1.1   -0.4   -0.3
C    -0.7   -0.4    1.1
O     0.5   -0.5    1.4
H    -2.2   -0.7   -0.4
H    -0.5   -1.2   -0.8
H    -1.0    0.6   -0.8
N    -1.7   -0.1    2.1
C    -1.5    0.3    3.4
C    -0.9    1.8    3.4
O    -0.4    2.2    2.4
H    -2.5    0.1    1.6
H    -2.5    0.5    3.8
C    -0.9   -0.7    4.4
C     0.6   -1.1    4.4
C     1.6    0.0    4.6
N     3.0   -0.4    4.7
C     3.8   -0.6    3.6
N     3.4   -0.1    2.4
N     5.0   -1.1    3.7
H    -1.5   -1.6    4.3
H    -1.1   -0.4    5.4
H     0.8   -1.6    3.4
H     0.7   -1.9    5.2
H     1.3    0.6    5.6
H     1.5    0.8    3.8
H     3.2   -1.0    5.5
H     2.4   -0.2    2.2
H     4.0   -0.3    1.7
H     5.2   -1.3    4.7
N    -0.9    2.5    4.6
C    -1.5    2.2    5.9
H    -0.5    3.4    4.5
H    -0.8    1.6    6.5
H    -2.4    1.6    5.8
H    -1.8    3.1    6.4
