          35
 sphere cut out from bulk 
C     1.2    0.8    0.3
C     0.8    0.3    1.7
O     1.5   -0.3    2.5
H     1.8    1.7    0.5
H     0.4    0.9   -0.4
H     1.9    0.0   -0.1
N    -0.6    0.6    2.0
C    -1.1    0.3    3.3
C    -1.6   -1.2    3.4
O    -2.8   -1.5    3.4
H    -1.2    0.9    1.3
H    -0.3    0.3    4.0
C    -2.2    1.3    3.7
C    -1.8    2.7    3.5
C    -0.7    3.2    4.5
N    -0.2    4.5    4.2
C     0.7    4.8    3.1
N     0.8    6.1    2.9
N     1.2    3.9    2.4
H    -2.5    1.0    4.7
H    -3.1    1.1    3.0
H    -2.7    3.4    3.8
H    -1.5    3.0    2.5
H     0.2    2.5    4.4
H    -1.0    3.1    5.5
H    -0.8    5.3    4.4
H     1.6    6.3    2.2
H     1.0    6.7    3.7
H     0.9    3.0    2.6
N    -0.6   -2.1    3.5
C    -0.8   -3.5    3.4
H     0.3   -1.7    3.4
H    -0.3   -4.0    4.2
H    -0.6   -4.0    2.5
H    -1.9   -3.7    3.6
