          35
 sphere cut out from bulk 
C    -3.1   -1.1    1.4
C    -1.7   -0.9    1.8
O    -0.8   -1.8    1.5
H    -3.4   -0.2    0.7
H    -3.8   -1.1    2.2
H    -3.2   -2.0    0.8
N    -1.3    0.2    2.4
C    -2.1    1.4    2.9
C    -1.4    2.6    2.5
O    -0.5    3.1    3.2
H    -0.3    0.3    2.7
H    -3.1    1.3    2.4
C    -2.4    1.3    4.4
C    -3.1    2.5    5.0
C    -4.5    2.8    4.4
N    -5.4    1.7    4.5
C    -5.7    0.8    3.4
N    -5.7    1.4    2.1
N    -6.0   -0.5    3.5
H    -1.4    1.2    4.9
H    -2.9    0.3    4.6
H    -2.5    3.4    4.9
H    -3.2    2.3    6.1
H    -4.4    3.1    3.4
H    -4.9    3.6    4.9
H    -5.5    1.2    5.4
H    -6.1    0.8    1.5
H    -6.2    2.3    2.1
H    -5.8   -0.8    4.4
N    -1.7    3.2    1.3
C    -2.6    2.6    0.3
H    -1.1    4.0    1.1
H    -2.7    3.4   -0.5
H    -3.5    2.4    0.7
H    -2.1    1.8   -0.2
