          35
 sphere cut out from bulk 
C    -0.1   -0.3    0.3
C    -0.0   -0.1    1.8
O     1.0    0.3    2.3
H     0.1    0.7   -0.2
H    -1.1   -0.6   -0.1
H     0.6   -1.0   -0.1
N    -1.1   -0.5    2.5
C    -1.2   -0.5    3.9
C    -2.1   -1.7    4.4
O    -1.6   -2.7    4.8
H    -1.9   -0.9    1.9
H    -0.2   -0.8    4.3
C    -1.6    0.9    4.5
C    -1.7    0.9    6.0
C    -2.8    1.9    6.5
N    -4.1    1.4    6.2
C    -4.8    1.8    5.0
N    -4.8    3.1    4.8
N    -5.3    0.9    4.2
H    -2.6    1.1    4.0
H    -0.9    1.6    4.1
H    -0.7    1.2    6.4
H    -1.9   -0.1    6.4
H    -2.6    2.9    6.1
H    -2.7    1.9    7.6
H    -4.2    0.4    6.3
H    -4.8    3.8    5.6
H    -5.3    3.5    4.0
H    -5.9    1.3    3.5
N    -3.4   -1.5    4.3
C    -4.4   -2.6    4.7
H    -3.9   -0.6    4.0
H    -4.1   -2.9    5.7
H    -4.3   -3.4    4.0
H    -5.4   -2.1    4.7
