          35
 sphere cut out from bulk 
C    -0.0   -1.2    0.3
C    -0.1   -1.2    1.8
O     0.4   -2.0    2.6
H     0.3   -2.2    0.0
H     0.6   -0.5   -0.1
H    -1.0   -1.1   -0.1
N    -0.8   -0.1    2.3
C    -0.9    0.1    3.8
C    -2.1    1.0    4.0
O    -2.5    1.9    3.3
H    -1.2    0.6    1.7
H    -1.0   -0.9    4.2
C     0.3    0.7    4.4
C     0.7    2.2    4.3
C     1.1    2.7    2.9
N    -0.0    2.9    2.0
C     0.1    2.5    0.7
N    -1.2    2.2    0.1
N     1.1    2.3   -0.1
H     1.2    0.1    4.1
H     0.2    0.5    5.5
H     1.5    2.5    5.0
H    -0.2    2.9    4.6
H     1.8    2.0    2.5
H     1.6    3.7    3.0
H    -0.9    2.8    2.4
H    -1.2    2.2   -0.9
H    -2.0    2.8    0.5
H     1.9    2.5    0.5
N    -2.8    0.8    5.2
C    -2.6   -0.3    6.1
H    -3.6    1.4    5.3
H    -3.5   -0.3    6.9
H    -1.7   -0.2    6.7
H    -2.6   -1.3    5.7
