          35
 sphere cut out from bulk 
C    -0.1    0.0    0.0
C    -0.0    0.1    1.5
O     1.0    0.2    2.1
H     0.5   -0.9   -0.3
H     0.4    0.9   -0.4
H    -1.1   -0.1   -0.4
N    -1.3   -0.0    2.1
C    -1.6   -0.1    3.6
C    -2.2    1.1    4.2
O    -3.1    1.0    5.0
H    -2.1   -0.1    1.5
H    -2.5   -0.8    3.6
C    -0.6   -0.8    4.5
C     0.6   -0.0    5.2
C     0.1    0.6    6.5
N     1.2    1.3    7.2
C     2.1    0.6    8.0
N     3.2    1.3    8.4
N     1.9   -0.7    8.2
H    -0.1   -1.6    3.9
H    -1.1   -1.4    5.2
H     1.0    0.7    4.5
H     1.4   -0.7    5.4
H    -0.3   -0.1    7.2
H    -0.7    1.4    6.3
H     1.6    2.1    6.7
H     2.9    2.3    8.8
H     3.7    0.8    9.1
H     2.6   -1.1    8.8
N    -1.7    2.4    3.9
C    -0.6    2.8    3.1
H    -2.3    3.1    4.4
H    -0.2    3.8    3.5
H    -0.9    3.0    2.0
H     0.2    2.1    3.1
