          35
 sphere cut out from bulk 
C    -1.3    0.1   -0.0
C    -1.3   -0.2    1.4
O    -0.5    0.2    2.2
H    -2.1   -0.2   -0.6
H    -0.4   -0.3   -0.5
H    -1.2    1.2   -0.1
N    -2.3   -1.1    1.8
C    -2.5   -1.7    3.1
C    -2.9   -0.7    4.3
O    -3.9   -1.0    4.9
H    -3.0   -1.3    1.1
H    -3.3   -2.4    3.0
C    -1.2   -2.6    3.5
C    -1.4   -3.3    4.9
C    -0.3   -4.2    5.2
N    -0.1   -5.4    4.3
C     0.5   -5.4    3.1
N     1.6   -4.5    3.1
N     0.2   -6.0    2.0
H    -0.3   -1.9    3.6
H    -1.1   -3.3    2.7
H    -2.4   -3.9    4.8
H    -1.6   -2.6    5.7
H    -0.4   -4.6    6.2
H     0.7   -3.7    5.2
H    -1.0   -6.0    4.3
H     2.2   -4.7    2.2
H     2.2   -4.6    3.9
H    -0.7   -6.5    2.1
N    -2.1    0.3    4.5
C    -2.4    1.3    5.5
H    -1.3    0.5    3.9
H    -1.5    1.4    6.2
H    -3.2    1.0    6.1
H    -2.6    2.3    5.1
