          35
 sphere cut out from bulk 
C    -0.2    0.1    0.1
C    -0.2   -0.1    1.6
O     0.5   -1.0    2.2
H     0.8    0.6   -0.1
H    -0.9    0.8   -0.2
H    -0.2   -0.8   -0.4
N    -1.1    0.6    2.3
C    -1.4    0.3    3.7
C    -2.0   -1.0    3.9
O    -2.9   -1.5    3.1
H    -1.8    1.2    1.8
H    -0.4    0.3    4.2
C    -2.2    1.5    4.4
C    -3.7    1.5    4.4
C    -4.5    1.2    3.0
N    -3.9    1.8    1.9
C    -3.9    1.2    0.6
N    -4.0   -0.1    0.6
N    -3.8    1.9   -0.5
H    -1.8    2.4    3.9
H    -1.9    1.6    5.4
H    -4.0    2.5    4.8
H    -4.1    0.7    5.1
H    -5.5    1.5    3.2
H    -4.5    0.1    2.9
H    -4.0    2.8    1.8
H    -3.8   -0.5   -0.3
H    -3.5   -0.7    1.4
H    -3.9    2.9   -0.4
N    -1.6   -1.7    5.0
C    -0.5   -1.5    5.9
H    -2.1   -2.7    5.1
H    -0.6   -0.5    6.4
H     0.4   -1.5    5.3
H    -0.5   -2.3    6.7
