          35
 sphere cut out from bulk 
C     0.1    0.8    0.1
C     0.1    0.1    1.4
O     1.2   -0.1    2.0
H     1.1    1.2   -0.1
H    -0.6    1.7    0.2
H    -0.2    0.2   -0.7
N    -1.1   -0.3    2.0
C    -2.4   -0.2    1.4
C    -3.1    1.1    1.7
O    -4.2    1.4    1.1
H    -1.0   -0.8    2.8
H    -2.3   -0.2    0.3
C    -3.3   -1.4    1.8
C    -2.8   -2.7    1.1
C    -3.5   -4.0    1.7
N    -3.2   -4.3    3.0
C    -3.9   -3.9    4.2
N    -3.2   -4.2    5.4
N    -5.0   -3.3    4.2
H    -4.3   -1.1    1.5
H    -3.2   -1.5    2.9
H    -1.7   -2.8    1.2
H    -3.0   -2.6    0.0
H    -3.3   -4.8    1.1
H    -4.6   -3.9    1.6
H    -2.2   -4.4    3.2
H    -3.9   -4.0    6.2
H    -2.8   -5.1    5.4
H    -5.4   -3.0    3.3
N    -2.6    1.9    2.6
C    -3.1    3.2    3.0
H    -1.7    1.6    3.0
H    -4.1    3.3    2.5
H    -2.5    4.0    2.8
H    -3.4    3.2    4.1
