          35
 sphere cut out from bulk 
C    -0.3    0.7   -0.3
C    -0.2    0.4    1.2
O     0.9    0.3    1.8
H     0.6    0.3   -0.8
H    -0.2    1.8   -0.4
H    -1.2    0.4   -0.7
N    -1.4    0.2    1.9
C    -1.4   -0.3    3.2
C    -2.5   -1.4    3.2
O    -3.4   -1.4    2.3
H    -2.2   -0.1    1.3
H    -0.5   -0.8    3.4
C    -1.7    0.7    4.3
C    -0.6    1.7    4.6
C    -0.5    3.0    3.6
N    -1.7    3.7    3.7
C    -2.4    4.2    2.5
N    -2.3    3.4    1.4
N    -3.1    5.3    2.6
H    -1.9    0.2    5.2
H    -2.6    1.3    4.0
H     0.4    1.2    4.5
H    -0.7    2.1    5.6
H    -0.3    2.6    2.6
H     0.4    3.6    3.9
H    -1.8    4.4    4.4
H    -3.0    3.6    0.7
H    -2.2    2.4    1.6
H    -3.6    5.5    1.8
N    -2.5   -2.3    4.2
C    -3.5   -3.3    4.4
H    -1.8   -2.2    4.9
H    -4.0   -3.2    5.3
H    -3.0   -4.3    4.4
H    -4.2   -3.2    3.6
