          35
 sphere cut out from bulk 
C    -0.1    1.1    1.2
C    -0.4    0.2    2.4
O     0.4   -0.2    3.2
H     1.0    0.9    1.0
H    -0.2    2.1    1.5
H    -0.7    0.9    0.3
N    -1.7   -0.2    2.5
C    -3.0    0.2    1.9
C    -3.0   -0.2    0.4
O    -3.0   -1.4    0.2
H    -1.8   -0.9    3.3
H    -3.8   -0.4    2.3
C    -3.3    1.7    2.3
C    -3.4    1.9    3.8
C    -3.3    3.4    4.3
N    -2.4    4.2    3.6
C    -1.0    3.9    3.5
N    -0.4    3.1    4.4
N    -0.2    4.5    2.6
H    -4.2    2.0    1.8
H    -2.5    2.4    1.9
H    -2.6    1.3    4.3
H    -4.4    1.4    4.2
H    -3.2    3.4    5.4
H    -4.3    3.8    4.1
H    -2.7    4.7    2.9
H     0.5    2.8    4.2
H    -1.0    2.3    4.8
H    -0.7    5.1    2.0
N    -3.1    0.7   -0.6
C    -3.1    2.1   -0.7
H    -3.2    0.1   -1.5
H    -3.0    2.4   -1.8
H    -2.2    2.5   -0.2
H    -4.0    2.6   -0.4
