          35
 sphere cut out from bulk 
C    -0.5   -0.4   -0.1
C    -0.2   -0.0    1.4
O     0.9    0.3    1.8
H     0.2   -1.2   -0.3
H    -0.2    0.5   -0.7
H    -1.5   -0.7   -0.3
N    -1.3   -0.2    2.2
C    -1.5    0.1    3.6
C    -1.9    1.6    3.8
O    -3.1    1.9    3.8
H    -2.2   -0.3    1.7
H    -2.4   -0.4    3.9
C    -0.3   -0.5    4.5
C    -0.7   -0.7    6.0
C    -1.1    0.6    6.8
N    -1.3    0.3    8.2
C    -2.5   -0.2    8.7
N    -2.4   -0.5   10.0
N    -3.4   -0.5    7.8
H     0.6    0.2    4.5
H    -0.1   -1.4    4.0
H     0.1   -1.2    6.4
H    -1.6   -1.4    6.0
H    -2.0    1.0    6.4
H    -0.2    1.3    6.7
H    -0.4   -0.0    8.7
H    -3.3   -0.8   10.4
H    -1.9    0.2   10.6
H    -4.3   -0.7    8.3
N    -1.0    2.6    3.9
C     0.5    2.7    3.9
H    -1.5    3.5    4.0
H     0.9    2.6    4.9
H     0.8    3.6    3.5
H     0.9    1.9    3.2
