          35
 sphere cut out from bulk 
C    -0.5   -0.5    0.1
C    -0.5   -0.3    1.6
O     0.5   -0.5    2.3
H     0.2    0.2   -0.4
H    -1.5   -0.4   -0.4
H    -0.1   -1.5   -0.1
N    -1.7   -0.0    2.1
C    -1.9    0.3    3.5
C    -1.8   -0.9    4.6
O    -1.4   -0.6    5.7
H    -2.5    0.1    1.5
H    -1.0    0.9    3.8
C    -3.2    1.0    3.8
C    -3.0    2.6    4.0
C    -2.1    3.0    5.2
N    -2.4    2.2    6.4
C    -3.6    2.2    7.0
N    -4.3    3.4    6.9
N    -4.1    1.2    7.7
H    -3.7    0.7    4.7
H    -3.9    0.8    3.0
H    -4.0    3.0    4.1
H    -2.6    3.0    3.0
H    -2.2    4.0    5.3
H    -1.1    2.8    4.9
H    -1.9    1.3    6.4
H    -5.1    3.4    7.6
H    -3.7    4.3    7.0
H    -3.5    0.4    7.6
N    -2.1   -2.2    4.2
C    -2.6   -2.7    3.0
H    -1.9   -2.8    5.0
H    -3.0   -3.7    3.2
H    -1.8   -2.8    2.2
H    -3.4   -2.1    2.6
