          35
 sphere cut out from bulk 
C    -0.5   -1.4    0.4
C    -0.8   -1.0    1.8
O     0.1   -1.1    2.7
H    -0.9   -0.8   -0.4
H    -0.9   -2.5    0.2
H     0.6   -1.5    0.2
N    -2.0   -0.5    2.0
C    -3.1   -0.4    1.2
C    -4.1    0.6    1.9
O    -4.0    0.8    3.1
H    -2.2   -0.2    3.0
H    -2.8    0.1    0.2
C    -3.8   -1.7    0.8
C    -3.9   -2.8    1.9
C    -4.7   -2.4    3.2
N    -6.0   -1.7    3.0
C    -7.0   -2.0    2.1
N    -7.1   -3.4    1.9
N    -7.6   -1.1    1.5
H    -3.3   -2.1   -0.0
H    -4.8   -1.5    0.4
H    -2.9   -3.1    2.2
H    -4.4   -3.7    1.4
H    -4.1   -1.8    3.8
H    -4.9   -3.3    3.7
H    -5.9   -0.7    3.1
H    -8.0   -3.6    1.4
H    -7.0   -4.0    2.8
H    -8.4   -1.5    1.0
N    -5.0    1.2    1.1
C    -5.4    1.0   -0.3
H    -5.7    1.8    1.6
H    -5.8    2.0   -0.7
H    -6.2    0.2   -0.4
H    -4.5    0.7   -0.9
