          35
 sphere cut out from bulk 
C    -1.6   -1.0   -1.5
C    -0.5   -0.8   -0.5
O     0.7   -1.1   -0.7
H    -1.1   -1.2   -2.5
H    -2.2   -0.1   -1.6
H    -2.3   -1.8   -1.3
N    -0.9   -0.4    0.8
C    -2.2   -0.1    1.3
C    -3.2   -1.4    1.2
O    -2.8   -2.4    1.8
H    -0.2   -0.5    1.5
H    -2.1   -0.1    2.4
C    -2.8    1.3    0.9
C    -1.8    2.4    1.4
C    -2.3    3.8    1.0
N    -1.4    4.8    1.5
C    -1.6    6.2    1.4
N    -3.0    6.6    1.2
N    -0.6    7.0    1.5
H    -3.8    1.4    1.4
H    -2.9    1.4   -0.1
H    -0.8    2.2    1.0
H    -1.7    2.4    2.5
H    -3.3    3.9    1.4
H    -2.4    3.8   -0.1
H    -0.5    4.6    1.6
H    -3.1    7.5    0.8
H    -3.6    5.9    0.7
H    -0.9    7.9    1.4
N    -4.4   -1.3    0.6
C    -5.1   -0.4   -0.2
H    -4.8   -2.2    0.7
H    -5.9   -0.9   -0.7
H    -4.4   -0.0   -1.0
H    -5.5    0.5    0.3
