          35
 sphere cut out from bulk 
C     0.1   -0.9    1.7
C     0.4    0.5    2.2
O     1.4    0.8    2.8
H    -0.6   -1.4    2.5
H     1.0   -1.4    1.7
H    -0.4   -0.9    0.8
N    -0.6    1.4    2.0
C    -1.9    1.3    1.4
C    -2.4    2.7    1.0
O    -2.0    3.7    1.6
H    -0.4    2.4    2.3
H    -1.8    0.7    0.4
C    -3.0    0.5    2.2
C    -2.9    0.7    3.8
C    -3.0    2.1    4.3
N    -4.0    3.0    3.7
C    -5.3    2.8    3.7
N    -6.0    3.7    2.9
N    -6.0    1.8    4.2
H    -2.9   -0.5    2.0
H    -4.0    0.8    1.9
H    -1.9    0.3    4.1
H    -3.6    0.0    4.2
H    -2.1    2.6    4.3
H    -3.3    2.0    5.4
H    -3.6    3.6    3.0
H    -7.0    3.6    3.0
H    -5.7    4.7    3.1
H    -5.4    1.1    4.7
N    -3.4    2.8    0.1
C    -4.1    4.0   -0.3
H    -3.7    1.9   -0.3
H    -4.3    4.0   -1.3
H    -3.4    4.8   -0.1
H    -5.0    4.1    0.3
