          35
 sphere cut out from bulk 
C    -0.2   -0.0   -0.5
C     0.0    0.0    1.0
O     1.2    0.1    1.5
H    -0.8    0.8   -0.8
H    -0.8   -0.9   -0.8
H     0.7   -0.0   -1.0
N    -1.1   -0.1    1.8
C    -2.5   -0.1    1.5
C    -3.0    1.2    0.9
O    -3.8    1.1   -0.1
H    -0.8   -0.0    2.8
H    -2.6   -0.8    0.6
C    -3.3   -0.6    2.6
C    -3.0   -2.0    3.2
C    -3.1   -3.1    2.2
N    -3.0   -4.4    2.7
C    -3.9   -5.0    3.5
N    -3.5   -6.3    4.0
N    -5.1   -4.5    3.6
H    -4.4   -0.6    2.3
H    -3.3    0.1    3.5
H    -3.7   -2.2    4.0
H    -2.0   -2.0    3.6
H    -2.4   -3.0    1.3
H    -4.2   -3.1    1.7
H    -2.0   -4.7    3.0
H    -4.3   -6.8    4.4
H    -3.0   -6.8    3.4
H    -5.8   -5.1    4.1
N    -2.6    2.4    1.4
C    -1.8    2.7    2.5
H    -3.1    3.2    0.9
H    -2.0    2.1    3.4
H    -1.9    3.8    2.8
H    -0.7    2.6    2.3
