          35
 sphere cut out from bulk 
C    -0.8    0.4   -0.1
C    -0.9    0.1    1.4
O     0.1   -0.1    2.1
H    -0.9   -0.5   -0.6
H     0.2    0.9   -0.2
H    -1.6    1.1   -0.5
N    -2.2    0.1    2.0
C    -3.5    0.6    1.6
C    -3.8    0.2    0.1
O    -4.2    1.1   -0.7
H    -2.1   -0.1    3.0
H    -4.2   -0.1    2.2
C    -3.8    2.0    1.9
C    -2.9    3.1    1.5
C    -1.8    3.6    2.5
N    -0.5    3.0    2.3
C     0.4    3.4    1.3
N     0.1    4.6    0.6
N     1.5    2.8    1.0
H    -3.9    2.1    3.0
H    -4.8    2.2    1.5
H    -3.5    4.0    1.3
H    -2.4    2.9    0.5
H    -2.1    3.3    3.5
H    -1.8    4.7    2.5
H    -0.2    2.1    2.7
H     0.8    4.9    0.0
H    -0.4    5.3    1.1
H     1.6    1.9    1.5
N    -3.8   -1.1   -0.2
C    -3.4   -2.3    0.5
H    -4.0   -1.2   -1.2
H    -3.9   -3.1    0.1
H    -3.8   -2.2    1.6
H    -2.3   -2.4    0.6
