          35
 sphere cut out from bulk 
C     0.2   -2.2    0.6
C    -0.6   -3.1   -0.3
O    -0.2   -4.3   -0.5
H    -0.4   -1.9    1.5
H     0.5   -1.3    0.1
H     1.1   -2.8    1.0
N    -1.6   -2.5   -1.0
C    -2.2   -1.2   -0.8
C    -2.9   -1.0    0.6
O    -2.7    0.0    1.2
H    -2.1   -3.2   -1.6
H    -1.4   -0.5   -0.8
C    -3.2   -0.9   -1.9
C    -4.0    0.4   -1.8
C    -3.0    1.6   -1.9
N    -3.7    2.9   -1.7
C    -4.2    3.4   -0.5
N    -3.6    2.9    0.7
N    -5.2    4.3   -0.6
H    -3.9   -1.8   -2.0
H    -2.6   -0.9   -2.9
H    -4.5    0.4   -0.9
H    -4.7    0.5   -2.6
H    -2.5    1.7   -2.8
H    -2.2    1.6   -1.1
H    -4.3    3.2   -2.5
H    -4.1    3.1    1.5
H    -3.2    2.0    0.7
H    -5.5    4.6    0.4
N    -3.6   -2.0    1.2
C    -4.0   -3.4    0.7
H    -4.0   -1.8    2.1
H    -3.2   -4.0    0.7
H    -4.4   -3.3   -0.4
H    -4.8   -3.7    1.3
