          35
 sphere cut out from bulk 
C     0.1    0.5   -0.0
C     0.1   -0.4    1.2
O     1.1   -0.9    1.7
H    -0.4    1.4    0.2
H    -0.4   -0.0   -0.9
H     1.1    0.7   -0.3
N    -1.1   -0.7    1.8
C    -2.4   -0.3    1.3
C    -2.9    1.1    1.8
O    -3.9    1.7    1.4
H    -1.1   -1.4    2.6
H    -2.4   -0.1    0.2
C    -3.5   -1.3    1.6
C    -3.4   -2.6    0.9
C    -2.5   -3.7    1.5
N    -2.9   -4.1    2.9
C    -2.2   -3.6    4.0
N    -2.6   -4.4    5.2
N    -1.4   -2.6    4.0
H    -4.5   -0.8    1.3
H    -3.6   -1.4    2.7
H    -3.1   -2.5   -0.1
H    -4.4   -3.1    0.8
H    -1.4   -3.3    1.6
H    -2.5   -4.6    0.9
H    -3.3   -5.0    3.0
H    -2.3   -3.9    6.0
H    -3.5   -4.7    5.2
H    -1.0   -2.4    4.9
N    -2.1    1.6    2.8
C    -2.4    2.9    3.4
H    -1.3    1.1    3.1
H    -3.2    3.4    2.9
H    -1.5    3.6    3.2
H    -2.5    2.8    4.5
