          35
 sphere cut out from bulk 
C     0.8   -1.7    0.0
C     0.4   -1.8    1.5
O     0.8   -2.7    2.2
H     1.8   -1.4   -0.1
H     0.1   -1.0   -0.5
H     0.6   -2.7   -0.4
N    -0.4   -0.8    2.0
C    -0.6   -0.4    3.4
C     0.7    0.2    4.0
O     1.8    0.1    3.4
H    -0.5    0.0    1.3
H    -1.4    0.4    3.4
C    -1.2   -1.6    4.2
C    -2.5   -2.1    3.7
C    -2.5   -3.4    2.9
N    -2.0   -4.5    3.7
C    -1.3   -5.7    3.2
N    -0.5   -5.4    2.1
N    -1.6   -6.8    3.7
H    -1.3   -1.2    5.2
H    -0.4   -2.4    4.2
H    -3.1   -1.4    3.1
H    -3.2   -2.3    4.6
H    -1.8   -3.3    2.0
H    -3.5   -3.6    2.5
H    -2.6   -4.8    4.4
H     0.1   -6.2    1.9
H     0.1   -4.5    2.2
H    -1.0   -7.5    3.4
N     0.6    0.9    5.1
C    -0.6    1.2    5.9
H     1.4    1.2    5.5
H    -1.5    1.3    5.3
H    -0.5    2.2    6.4
H    -0.8    0.5    6.7
