          35
 sphere cut out from bulk 
C     1.6   -0.2    1.9
C     0.5   -1.1    1.6
O     0.6   -2.3    1.3
H     2.3   -0.2    1.0
H     2.2   -0.5    2.7
H     1.3    0.9    2.0
N    -0.8   -0.6    1.8
C    -2.0   -1.4    1.8
C    -2.6   -1.6    0.4
O    -3.5   -2.5    0.3
H    -0.8    0.3    2.2
H    -1.7   -2.4    2.2
C    -3.0   -0.7    2.8
C    -4.3   -1.5    3.0
C    -4.2   -2.9    3.5
N    -5.5   -3.5    3.9
C    -6.2   -3.2    5.0
N    -7.4   -3.8    5.1
N    -5.8   -2.5    6.0
H    -3.2    0.3    2.5
H    -2.5   -0.7    3.8
H    -4.9   -1.5    2.1
H    -4.9   -0.9    3.7
H    -3.6   -2.9    4.4
H    -3.7   -3.5    2.8
H    -6.1   -3.8    3.1
H    -7.8   -3.7    6.0
H    -7.5   -4.8    4.7
H    -4.9   -2.1    5.8
N    -2.2   -0.8   -0.5
C    -2.6   -0.8   -1.9
H    -1.4   -0.1   -0.3
H    -3.0    0.1   -2.3
H    -3.5   -1.5   -1.9
H    -1.9   -1.2   -2.6
