          35
 sphere cut out from bulk 
C    -1.6    1.3   -0.0
C    -1.1    1.1    1.4
O    -0.3    0.3    1.8
H    -2.3    2.1   -0.2
H    -2.0    0.3   -0.3
H    -0.7    1.4   -0.7
N    -1.8    2.0    2.3
C    -1.6    2.0    3.8
C    -0.2    2.5    4.3
O    -0.2    3.4    5.1
H    -2.4    2.6    1.9
H    -2.3    2.8    4.1
C    -2.0    0.7    4.4
C    -1.9    0.6    5.9
C    -2.8    1.7    6.7
N    -2.8    1.6    8.1
C    -3.5    0.6    8.8
N    -3.2    0.5   10.2
N    -4.2   -0.2    8.1
H    -1.4   -0.1    4.0
H    -3.1    0.5    4.1
H    -0.9    0.8    6.2
H    -2.2   -0.4    6.3
H    -3.9    1.5    6.4
H    -2.5    2.7    6.4
H    -1.9    1.8    8.6
H    -3.8   -0.1   10.7
H    -3.1    1.4   10.6
H    -4.8   -0.8    8.8
N     0.8    1.9    3.8
C     2.2    2.2    4.2
H     0.7    1.1    3.1
H     2.8    2.5    3.4
H     2.7    1.4    4.7
H     2.1    3.0    4.9
