          35
 sphere cut out from bulk 
C    -0.9    0.3   -0.4
C     0.2   -0.2    0.5
O     1.4   -0.0    0.3
H    -1.7    0.8    0.1
H    -1.4   -0.6   -0.9
H    -0.4    0.9   -1.1
N    -0.2   -0.9    1.6
C    -1.6   -1.4    2.0
C    -1.7   -1.5    3.5
O    -2.4   -0.7    4.1
H     0.6   -1.2    2.2
H    -2.3   -0.6    1.7
C    -1.9   -2.7    1.3
C    -3.4   -3.1    1.5
C    -3.9   -4.2    0.5
N    -3.9   -3.7   -0.9
C    -2.8   -3.7   -1.7
N    -2.1   -4.9   -1.7
N    -2.5   -2.7   -2.4
H    -1.2   -3.5    1.5
H    -1.8   -2.5    0.2
H    -4.0   -2.2    1.4
H    -3.5   -3.5    2.5
H    -4.9   -4.5    0.8
H    -3.2   -5.1    0.5
H    -4.4   -2.8   -1.0
H    -1.4   -5.0   -2.4
H    -2.6   -5.8   -1.6
H    -1.8   -2.9   -3.1
N    -1.0   -2.5    4.1
C    -1.0   -2.7    5.6
H    -0.5   -3.2    3.5
H     0.0   -2.7    5.9
H    -1.5   -3.6    5.8
H    -1.5   -1.8    6.0
