          35
 sphere cut out from bulk 
C    -1.2   -0.6    0.3
C    -1.3   -0.6    1.8
O    -0.9   -1.6    2.4
H    -1.7    0.2   -0.2
H    -1.5   -1.6   -0.1
H    -0.1   -0.5   -0.0
N    -1.9    0.4    2.4
C    -2.3    1.8    2.0
C    -3.2    1.8    0.8
O    -3.2    2.8   -0.0
H    -1.9    0.3    3.4
H    -3.0    2.1    2.8
C    -1.1    2.8    2.0
C     0.1    2.4    1.1
C    -0.0    2.7   -0.3
N     1.1    2.1   -1.1
C     1.1    1.9   -2.5
N    -0.1    1.9   -3.1
N     2.3    1.8   -3.0
H    -0.8    2.9    3.0
H    -1.5    3.8    1.6
H     0.4    1.4    1.3
H     1.0    3.0    1.5
H    -0.1    3.8   -0.5
H    -1.0    2.2   -0.7
H     2.0    2.2   -0.7
H    -0.1    2.0   -4.1
H    -0.9    2.4   -2.7
H     2.2    1.6   -4.0
N    -4.2    0.8    0.7
C    -5.1    0.7   -0.3
H    -4.0    0.1    1.4
H    -6.1    0.5    0.1
H    -4.9   -0.1   -1.0
H    -5.2    1.6   -0.9
