          35
 sphere cut out from bulk 
C    -0.9   -1.4    0.4
C    -0.7   -0.3    1.5
O    -0.0    0.7    1.4
H    -1.4   -0.9   -0.4
H    -1.4   -2.3    0.8
H     0.1   -1.7    0.0
N    -1.4   -0.6    2.7
C    -1.4    0.3    3.8
C    -1.2   -0.5    5.2
O    -1.9   -0.2    6.2
H    -1.9   -1.5    2.8
H    -0.4    0.9    3.7
C    -2.5    1.3    3.8
C    -3.9    0.9    3.4
C    -4.7    0.1    4.4
N    -4.2   -1.3    4.7
C    -4.0   -2.2    3.7
N    -4.9   -2.2    2.6
N    -3.1   -3.1    3.7
H    -2.2    2.1    3.1
H    -2.5    1.8    4.8
H    -3.9    0.3    2.4
H    -4.5    1.8    3.2
H    -5.8   -0.0    4.0
H    -4.8    0.6    5.4
H    -3.5   -1.3    5.4
H    -4.9   -3.0    2.0
H    -5.8   -1.9    2.8
H    -2.5   -3.0    4.5
N    -0.3   -1.5    5.1
C     0.1   -2.3    6.3
H     0.2   -1.6    4.2
H    -0.1   -3.3    6.1
H    -0.5   -1.9    7.1
H     1.1   -2.2    6.5
