          35
 sphere cut out from bulk 
C    -1.0   -1.6    0.4
C    -1.5   -1.6    1.9
O    -2.2   -0.7    2.3
H    -1.8   -1.5   -0.2
H    -0.4   -2.5    0.2
H    -0.4   -0.7    0.3
N    -1.1   -2.6    2.6
C    -1.5   -2.8    4.0
C    -0.4   -2.1    4.9
O     0.5   -2.8    5.5
H    -0.4   -3.3    2.2
H    -2.4   -2.2    4.1
C    -1.7   -4.3    4.4
C    -2.8   -5.0    3.6
C    -4.2   -4.5    3.7
N    -4.4   -3.2    3.0
C    -5.3   -2.3    3.3
N    -5.2   -1.2    2.5
N    -6.2   -2.4    4.2
H    -1.9   -4.3    5.5
H    -0.7   -4.8    4.3
H    -2.7   -6.1    3.9
H    -2.5   -5.1    2.5
H    -4.4   -4.3    4.8
H    -4.9   -5.3    3.4
H    -4.0   -3.2    2.1
H    -4.3   -0.8    2.4
H    -5.9   -0.5    2.8
H    -6.3   -3.3    4.7
N    -0.5   -0.8    5.0
C     0.4    0.1    5.7
H    -1.3   -0.4    4.4
H     1.1   -0.6    6.3
H    -0.1    0.8    6.3
H     1.0    0.7    5.0
