          35
 sphere cut out from bulk 
C    -0.4   -1.8   -0.6
C    -0.1   -1.6    0.8
O     1.0   -1.8    1.3
H     0.1   -1.0   -1.2
H    -1.5   -1.8   -0.8
H     0.0   -2.8   -0.9
N    -1.1   -1.0    1.7
C    -2.4   -0.4    1.4
C    -3.5   -1.4    1.1
O    -3.2   -2.5    0.6
H    -0.7   -0.9    2.6
H    -2.6    0.0    2.4
C    -2.3    0.8    0.4
C    -1.9    2.1    1.0
C    -0.7    2.2    1.9
N     0.5    1.8    1.2
C     1.7    1.8    1.9
N     2.6    0.8    1.4
N     2.1    2.6    2.8
H    -3.3    0.9   -0.1
H    -1.6    0.5   -0.4
H    -2.8    2.5    1.6
H    -1.8    2.9    0.2
H    -0.8    1.6    2.8
H    -0.6    3.3    2.2
H     0.4    1.0    0.6
H     3.5    0.9    1.9
H     2.2   -0.1    1.3
H     1.4    3.4    2.9
N    -4.8   -1.0    1.4
C    -5.2    0.2    2.0
H    -5.4   -1.7    1.1
H    -4.7    0.3    3.0
H    -6.3    0.1    2.2
H    -5.1    1.1    1.4
