          35
 sphere cut out from bulk 
C    -0.1   -0.9    0.2
C    -0.2   -0.7    1.7
O     0.4   -1.4    2.5
H    -0.5   -1.9   -0.1
H     0.9   -0.9   -0.1
H    -0.7   -0.1   -0.4
N    -1.1    0.3    2.1
C    -1.4    0.5    3.5
C    -0.2    0.4    4.4
O    -0.2   -0.3    5.4
H    -1.6    0.7    1.4
H    -1.8    1.5    3.5
C    -2.6   -0.4    4.0
C    -3.2    0.1    5.3
C    -3.4   -1.1    6.3
N    -3.8   -0.7    7.6
C    -2.9   -0.0    8.5
N    -1.5   -0.2    8.3
N    -3.4    0.6    9.5
H    -2.1   -1.4    4.1
H    -3.3   -0.5    3.2
H    -4.2    0.5    5.1
H    -2.6    0.8    5.8
H    -2.5   -1.7    6.3
H    -4.2   -1.8    5.9
H    -4.7   -0.4    7.8
H    -0.9    0.4    8.8
H    -1.2   -0.4    7.3
H    -2.7    1.0   10.1
N     0.8    1.3    4.2
C     1.1    2.1    3.1
H     1.6    1.1    4.8
H     1.5    1.6    2.2
H     1.8    2.9    3.4
H     0.1    2.6    2.8
