          35
 sphere cut out from bulk 
C     0.2    2.3    1.8
C    -0.7    1.3    2.5
O    -1.6    1.7    3.1
H     0.9    1.8    1.0
H     0.9    2.7    2.6
H    -0.3    3.1    1.4
N    -0.5   -0.0    2.2
C    -1.2   -1.1    3.0
C    -2.7   -0.9    2.9
O    -3.4   -1.1    3.9
H     0.4   -0.2    1.7
H    -0.9   -2.0    2.4
C    -0.7   -1.2    4.4
C    -1.0   -2.5    5.1
C    -1.3   -2.3    6.6
N    -2.5   -1.5    6.8
C    -2.4   -0.2    7.2
N    -3.4    0.7    6.6
N    -1.5    0.3    8.0
H    -1.1   -0.3    5.0
H     0.4   -1.0    4.4
H    -0.2   -3.2    5.0
H    -1.9   -3.0    4.6
H    -0.5   -1.9    7.1
H    -1.5   -3.3    7.0
H    -3.2   -1.6    6.0
H    -3.2    1.6    6.9
H    -3.5    0.5    5.7
H    -1.0   -0.4    8.5
N    -3.2   -0.6    1.6
C    -4.6   -0.3    1.4
H    -2.5   -0.3    0.9
H    -4.8    0.7    1.6
H    -5.2   -1.0    2.0
H    -4.8   -0.5    0.3
