          35
 sphere cut out from bulk 
C    -0.2   -0.6    1.0
C    -0.7   -0.4    2.4
O    -0.1   -0.8    3.4
H     0.8   -1.1    1.0
H    -0.1    0.4    0.5
H    -0.9   -1.2    0.4
N    -2.0    0.2    2.5
C    -2.9    0.6    1.5
C    -3.6    1.9    1.9
O    -4.8    2.0    2.1
H    -2.3    0.2    3.5
H    -2.3    0.9    0.6
C    -3.9   -0.5    1.0
C    -4.3   -1.6    2.1
C    -5.3   -1.0    3.2
N    -6.5   -0.4    2.7
C    -7.5   -1.0    2.0
N    -7.6   -2.4    2.3
N    -8.2   -0.5    1.0
H    -3.4   -1.1    0.2
H    -4.8   -0.0    0.6
H    -3.5   -2.0    2.5
H    -4.9   -2.3    1.5
H    -4.7   -0.3    3.8
H    -5.5   -1.9    3.8
H    -6.3    0.6    2.4
H    -8.5   -2.7    1.8
H    -7.6   -2.6    3.3
H    -7.8    0.5    0.8
N    -2.8    3.0    2.2
C    -1.4    3.1    2.0
H    -3.3    3.8    2.5
H    -0.8    2.6    2.8
H    -1.1    4.2    2.0
H    -1.0    2.7    1.1
