          35
 sphere cut out from bulk 
C    -0.3   -0.1   -0.4
C     0.1    0.1    1.1
O     1.2    0.2    1.4
H     0.6    0.1   -1.0
H    -1.1    0.6   -0.7
H    -0.6   -1.1   -0.6
N    -0.9    0.1    2.0
C    -2.4   -0.1    1.8
C    -3.1    1.1    2.6
O    -3.5    0.8    3.8
H    -0.6    0.2    2.9
H    -2.6    0.1    0.7
C    -2.9   -1.4    2.2
C    -2.3   -2.6    1.4
C    -2.8   -4.0    1.8
N    -2.3   -5.1    1.1
C    -0.9   -5.3    1.0
N    -0.2   -5.2    2.2
N    -0.4   -5.6   -0.2
H    -4.0   -1.4    2.1
H    -2.7   -1.6    3.3
H    -1.2   -2.6    1.4
H    -2.6   -2.5    0.3
H    -3.9   -4.0    1.8
H    -2.5   -4.1    2.9
H    -2.7   -5.2    0.1
H     0.7   -5.5    2.2
H    -0.7   -5.5    3.0
H     0.6   -5.9   -0.1
N    -3.1    2.3    2.1
C    -2.6    2.8    0.8
H    -3.5    3.0    2.7
H    -3.0    2.2   -0.0
H    -1.5    2.7    0.8
H    -2.9    3.8    0.7
