          35
 sphere cut out from bulk 
C    -0.1   -0.1    0.2
C    -0.1    0.1    1.7
O     0.9    0.3    2.4
H     0.8    0.5   -0.2
H    -1.0    0.2   -0.3
H     0.1   -1.1   -0.0
N    -1.4   -0.0    2.3
C    -2.7   -0.0    1.7
C    -2.9   -1.2    0.8
O    -3.6   -1.1   -0.2
H    -1.3    0.2    3.3
H    -3.4   -0.2    2.6
C    -3.1    1.3    1.1
C    -4.6    1.5    1.2
C    -5.0    2.9    0.6
N    -6.4    3.2    0.6
C    -7.0    3.6    1.8
N    -8.4    3.7    1.7
N    -6.3    3.9    2.8
H    -2.8    1.4    0.1
H    -2.6    2.1    1.7
H    -5.0    1.5    2.2
H    -5.1    0.7    0.6
H    -4.7    3.0   -0.5
H    -4.5    3.7    1.1
H    -7.0    2.6    0.0
H    -8.9    4.2    2.4
H    -8.8    4.1    0.8
H    -6.9    4.3    3.5
N    -2.3   -2.4    1.2
C    -2.4   -3.6    0.4
H    -1.7   -2.3    2.0
H    -2.7   -4.5    1.0
H    -1.4   -3.9   -0.1
H    -3.1   -3.5   -0.4
