          35
 sphere cut out from bulk 
C    -0.3    1.1    0.0
C    -0.1    1.2    1.5
O     0.9    1.6    2.0
H    -0.8    1.9   -0.4
H    -0.8    0.1   -0.3
H     0.7    1.1   -0.4
N    -1.2    1.0    2.3
C    -2.5    0.5    1.9
C    -3.2    1.4    0.9
O    -3.2    2.6    1.0
H    -1.0    1.0    3.3
H    -2.4   -0.6    1.5
C    -3.5    0.4    3.1
C    -3.1   -0.6    4.3
C    -2.3    0.1    5.4
N    -0.9    0.3    5.1
C     0.1   -0.7    5.0
N    -0.3   -1.9    5.4
N     1.3   -0.5    4.6
H    -4.5    0.1    2.7
H    -3.6    1.4    3.5
H    -2.5   -1.4    3.9
H    -4.0   -1.0    4.7
H    -2.4   -0.6    6.3
H    -2.8    1.0    5.7
H    -0.5    1.2    5.5
H     0.5   -2.6    5.4
H    -0.8   -2.0    6.2
H     1.4    0.5    4.1
N    -4.0    0.8   -0.1
C    -4.1   -0.6   -0.4
H    -4.4    1.4   -0.7
H    -4.8   -0.8   -1.3
H    -4.5   -1.2    0.4
H    -3.1   -1.1   -0.7
