          35
 sphere cut out from bulk 
C    -1.1    0.2   -0.3
C    -0.0    0.3    0.8
O     1.1    0.9    0.7
H    -1.9    0.8   -0.0
H    -1.4   -0.8   -0.6
H    -0.6    0.7   -1.2
N    -0.3   -0.4    2.0
C    -1.3   -1.3    2.3
C    -1.1   -2.7    1.6
O    -0.1   -3.3    1.8
H     0.6   -0.4    2.6
H    -1.1   -1.6    3.4
C    -2.7   -0.7    2.4
C    -3.7   -1.4    3.3
C    -3.4   -1.4    4.8
N    -3.3   -0.0    5.3
C    -4.4    0.8    5.5
N    -4.0    2.1    5.9
N    -5.6    0.4    5.2
H    -3.1   -0.6    1.4
H    -2.6    0.3    2.7
H    -3.8   -2.5    3.0
H    -4.7   -1.0    3.1
H    -2.5   -1.9    5.0
H    -4.3   -1.9    5.3
H    -2.4    0.5    5.1
H    -3.3    2.1    6.6
H    -4.8    2.6    6.2
H    -6.3    1.0    5.5
N    -2.1   -3.0    0.7
C    -2.1   -4.3   -0.0
H    -3.0   -2.4    0.7
H    -1.1   -4.8    0.2
H    -2.1   -4.1   -1.1
H    -2.9   -4.9    0.2
