          35
 sphere cut out from bulk 
C     0.5    1.7    1.7
C     0.0    0.3    1.9
O     0.7   -0.7    1.9
H     1.5    1.8    2.2
H    -0.2    2.5    2.0
H     0.7    1.8    0.7
N    -1.3    0.2    2.2
C    -2.1   -1.1    2.3
C    -1.5   -2.2    3.2
O    -1.7   -3.4    3.0
H    -1.9    1.0    2.2
H    -3.1   -0.8    2.8
C    -2.5   -1.6    0.9
C    -1.4   -2.0   -0.1
C    -2.0   -2.7   -1.3
N    -0.9   -3.0   -2.2
C    -1.1   -3.6   -3.5
N    -2.1   -4.5   -3.5
N    -0.4   -3.2   -4.5
H    -3.2   -0.9    0.4
H    -3.1   -2.5    1.1
H    -0.7   -2.7    0.4
H    -0.9   -1.1   -0.4
H    -2.8   -2.1   -1.8
H    -2.5   -3.7   -1.0
H    -0.2   -2.3   -2.3
H    -2.3   -5.0   -2.7
H    -2.2   -5.1   -4.4
H    -0.5   -3.8   -5.3
N    -0.9   -1.7    4.3
C    -0.2   -2.6    5.2
H    -0.7   -0.7    4.3
H    -0.2   -2.2    6.2
H     0.8   -2.7    4.9
H    -0.7   -3.6    5.2
