          35
 sphere cut out from bulk 
C    -0.7   -0.2   -0.4
C    -0.7    0.3    1.0
O     0.3    0.7    1.6
H    -0.8    0.6   -1.1
H    -1.5   -1.0   -0.6
H     0.3   -0.7   -0.6
N    -1.9    0.1    1.8
C    -3.3    0.1    1.3
C    -3.7   -1.4    0.9
O    -4.7   -1.6    0.2
H    -1.8    0.6    2.7
H    -3.9    0.3    2.2
C    -3.6    1.1    0.2
C    -3.3    2.5    0.6
C    -3.3    3.5   -0.6
N    -2.3    3.1   -1.6
C    -1.0    3.5   -1.8
N    -0.4    3.8   -0.6
N    -0.3    3.6   -2.9
H    -4.7    0.9    0.0
H    -3.1    0.8   -0.7
H    -2.4    2.6    1.1
H    -4.1    2.9    1.3
H    -3.0    4.5   -0.2
H    -4.3    3.5   -1.1
H    -2.8    2.9   -2.5
H    -0.5    3.2    0.2
H     0.6    4.0   -0.7
H    -0.9    3.5   -3.7
N    -2.9   -2.4    1.4
C    -3.2   -3.8    1.1
H    -2.1   -2.1    1.9
H    -4.1   -3.9    0.5
H    -3.3   -4.3    2.1
H    -2.3   -4.2    0.6
