          35
 sphere cut out from bulk 
C    -1.1    1.4   -0.3
C    -1.0    1.2    1.2
O    -0.5    2.0    1.9
H    -1.6    2.3   -0.6
H    -1.6    0.5   -0.8
H    -0.1    1.4   -0.7
N    -1.6    0.1    1.7
C    -1.7   -0.2    3.1
C    -1.9   -1.8    3.1
O    -2.5   -2.3    2.2
H    -2.1   -0.6    1.1
H    -0.8    0.1    3.5
C    -2.9    0.5    3.8
C    -2.7    0.8    5.3
C    -2.0    2.1    5.6
N    -0.7    2.3    4.8
C     0.4    1.7    5.2
N     1.5    1.9    4.3
N     0.5    1.1    6.3
H    -3.8   -0.1    3.6
H    -3.1    1.4    3.2
H    -2.2   -0.1    5.8
H    -3.7    0.8    5.8
H    -1.8    2.1    6.7
H    -2.6    2.9    5.3
H    -0.8    2.5    3.9
H     2.3    1.3    4.4
H     1.2    2.1    3.4
H     1.5    0.8    6.5
N    -1.4   -2.5    4.2
C    -0.4   -2.1    5.2
H    -1.6   -3.5    4.1
H    -0.7   -2.5    6.2
H    -0.3   -1.0    5.3
H     0.6   -2.5    5.0
