          35
 sphere cut out from bulk 
C     1.4   -0.5    0.5
C     1.0   -0.1    1.9
O     1.8    0.0    2.9
H     2.2    0.2    0.2
H     0.6   -0.5   -0.2
H     1.9   -1.5    0.6
N    -0.4    0.1    2.0
C    -1.2    0.3    3.2
C    -0.9    1.6    4.1
O    -1.9    2.1    4.8
H    -0.9   -0.0    1.2
H    -2.2    0.6    2.8
C    -1.4   -0.9    4.1
C    -0.3   -1.3    5.1
C    -0.7   -1.1    6.6
N    -0.9    0.3    6.9
C    -0.6    0.8    8.2
N    -0.9    2.1    8.3
N    -0.2    0.0    9.1
H    -1.6   -1.8    3.4
H    -2.4   -0.8    4.7
H     0.6   -0.8    4.9
H    -0.1   -2.4    5.0
H     0.2   -1.5    7.2
H    -1.5   -1.7    6.8
H    -1.5    0.8    6.3
H    -1.2    2.5    9.2
H    -1.5    2.5    7.5
H     0.0    0.6   10.0
N     0.3    2.0    4.2
C     0.7    3.1    5.1
H     1.1    1.4    3.8
H     1.7    3.5    4.7
H     0.8    2.7    6.1
H    -0.0    3.9    5.1
