          35
 sphere cut out from bulk 
C     0.0    1.1    0.1
C     0.2    0.9    1.6
O     1.3    1.1    2.2
H     0.9    1.7   -0.2
H    -0.9    1.6   -0.2
H     0.1    0.1   -0.4
N    -0.9    0.5    2.3
C    -2.1   -0.1    1.8
C    -3.2    0.9    1.5
O    -3.9    0.8    0.5
H    -0.7    0.3    3.3
H    -1.9   -0.6    0.8
C    -2.6   -1.2    2.7
C    -2.0   -2.6    2.5
C    -0.5   -2.7    2.5
N     0.1   -2.4    1.2
C     1.5   -2.4    1.0
N     2.2   -1.8    2.0
N     2.1   -3.0   -0.0
H    -3.7   -1.3    2.6
H    -2.5   -0.9    3.8
H    -2.4   -3.1    1.6
H    -2.4   -3.3    3.3
H    -0.2   -3.8    2.9
H    -0.0   -2.1    3.3
H    -0.4   -2.9    0.5
H     1.9   -0.9    2.3
H     3.2   -1.8    1.7
H     1.4   -3.5   -0.6
N    -3.5    1.9    2.3
C    -2.9    2.3    3.6
H    -4.2    2.5    2.0
H    -3.5    3.0    4.1
H    -1.9    2.7    3.5
H    -2.8    1.4    4.3
