          35
 sphere cut out from bulk 
C    -1.6   -0.1   -0.0
C    -0.8    0.6    1.0
O    -0.1    1.6    0.7
H    -1.5    0.3   -1.0
H    -2.7   -0.1    0.2
H    -1.4   -1.2   -0.1
N    -0.8    0.1    2.3
C    -1.5   -1.1    2.8
C    -1.8   -0.8    4.3
O    -1.0   -0.2    5.0
H    -0.3    0.6    3.0
H    -2.4   -1.2    2.3
C    -0.6   -2.4    2.7
C    -1.4   -3.7    2.9
C    -0.5   -4.9    2.8
N    -1.2   -6.2    3.0
C    -1.6   -6.6    4.2
N    -2.3   -7.8    4.2
N    -1.3   -5.9    5.3
H     0.2   -2.3    3.4
H    -0.2   -2.4    1.6
H    -2.2   -3.8    2.2
H    -1.9   -3.7    3.9
H     0.3   -4.8    3.5
H     0.0   -4.9    1.8
H    -1.8   -6.5    2.2
H    -2.5   -8.2    5.1
H    -1.9   -8.5    3.5
H    -1.6   -6.4    6.1
N    -2.9   -1.4    4.8
C    -3.3   -1.4    6.2
H    -3.5   -1.9    4.1
H    -3.2   -2.4    6.6
H    -4.3   -1.0    6.3
H    -2.6   -0.7    6.7
