          35
 sphere cut out from bulk 
C     0.1   -0.1    0.9
C    -0.2    0.5    2.3
O     0.7    0.9    3.0
H    -0.4    0.5    0.1
H    -0.2   -1.1    0.8
H     1.2   -0.1    0.8
N    -1.5    0.5    2.7
C    -2.7    0.1    2.0
C    -3.7    1.2    2.1
O    -3.8    1.9    3.2
H    -1.7    1.0    3.6
H    -2.4   -0.1    0.9
C    -3.3   -1.2    2.5
C    -2.4   -2.5    2.4
C    -3.0   -3.7    3.1
N    -2.1   -4.9    3.0
C    -1.3   -5.4    3.9
N    -0.9   -4.4    4.9
N    -0.9   -6.6    4.1
H    -4.3   -1.4    2.0
H    -3.5   -1.1    3.6
H    -1.4   -2.2    2.8
H    -2.2   -2.7    1.3
H    -4.0   -4.0    2.7
H    -3.1   -3.5    4.2
H    -2.4   -5.6    2.3
H    -0.2   -4.8    5.5
H    -0.6   -3.5    4.5
H    -1.3   -7.2    3.4
N    -4.6    1.4    1.1
C    -4.6    0.7   -0.2
H    -5.3    2.1    1.3
H    -5.5    1.1   -0.8
H    -4.8   -0.4   -0.1
H    -3.7    0.9   -0.8
