          35
 sphere cut out from bulk 
C     0.5    0.7   -0.7
C     0.5    0.6    0.8
O     1.4   -0.1    1.3
H    -0.4    1.3   -1.1
H     0.5   -0.3   -1.2
H     1.4    1.3   -1.1
N    -0.5    1.1    1.5
C    -0.6    1.0    2.9
C    -2.1    1.0    3.3
O    -2.9    1.6    2.6
H    -1.3    1.6    1.0
H    -0.2   -0.0    3.1
C     0.2    2.1    3.6
C     0.6    1.7    5.1
C     1.7    0.7    5.3
N     1.7   -0.5    4.4
C     0.8   -1.5    4.6
N     1.1   -2.6    3.8
N    -0.1   -1.4    5.5
H    -0.4    3.0    3.6
H     1.1    2.2    3.1
H    -0.3    1.4    5.6
H     0.9    2.6    5.6
H     1.8    0.4    6.3
H     2.7    1.2    5.0
H     2.0   -0.3    3.5
H     0.2   -3.1    3.5
H     1.6   -2.4    3.0
H    -0.5   -2.4    5.6
N    -2.4    0.3    4.4
C    -3.7    0.3    5.0
H    -1.6   -0.3    4.8
H    -3.7    0.6    6.0
H    -4.1   -0.8    4.9
H    -4.3    0.9    4.4
