          35
 sphere cut out from bulk 
C     1.1    0.9    0.4
C     0.2    0.5    1.6
O     0.1    1.1    2.6
H     2.1    1.1    0.8
H     0.7    1.9    0.0
H     1.1    0.2   -0.4
N    -0.5   -0.7    1.4
C    -1.4   -1.2    2.3
C    -0.9   -1.8    3.7
O    -1.8   -1.9    4.6
H    -0.4   -1.2    0.5
H    -2.1   -0.4    2.7
C    -2.4   -2.2    1.7
C    -1.8   -3.5    1.1
C    -1.6   -4.6    2.2
N    -2.9   -5.0    2.8
C    -3.0   -5.5    4.1
N    -2.3   -4.8    5.0
N    -3.8   -6.4    4.5
H    -2.9   -1.7    0.8
H    -3.2   -2.5    2.4
H    -0.8   -3.4    0.7
H    -2.4   -3.9    0.3
H    -1.0   -4.3    3.0
H    -1.1   -5.5    1.7
H    -3.5   -5.6    2.1
H    -2.5   -5.1    6.0
H    -2.2   -3.8    4.9
H    -4.2   -6.9    3.7
N     0.3   -2.2    3.9
C     1.5   -2.2    3.0
H     0.5   -2.5    4.8
H     2.3   -2.8    3.5
H     1.9   -1.2    2.8
H     1.3   -2.7    2.0
