          35
 sphere cut out from bulk 
C    -1.1   -0.5   -0.4
C    -0.1   -0.6    0.7
O     0.8   -1.5    0.8
H    -1.0    0.4   -1.0
H    -2.2   -0.6   -0.0
H    -0.9   -1.4   -1.1
N    -0.2    0.4    1.7
C    -1.2    1.4    1.9
C    -0.5    2.7    2.4
O    -0.7    3.2    3.5
H     0.5    0.2    2.5
H    -1.6    1.6    0.9
C    -2.3    1.0    2.8
C    -1.9    0.3    4.2
C    -3.1    0.2    5.2
N    -3.9    1.5    5.3
C    -3.5    2.5    6.2
N    -2.1    2.8    6.2
N    -4.4    3.0    7.0
H    -3.0    0.2    2.3
H    -3.0    1.9    3.0
H    -1.1    0.9    4.6
H    -1.5   -0.7    4.0
H    -2.7   -0.1    6.1
H    -3.8   -0.5    4.8
H    -4.9    1.3    5.5
H    -1.9    3.6    6.8
H    -1.7    2.9    5.3
H    -4.0    3.8    7.5
N     0.4    3.3    1.6
C     0.8    2.9    0.2
H     0.8    4.1    2.0
H     1.3    3.7   -0.2
H    -0.1    2.7   -0.4
H     1.4    2.0    0.2
