          35
 sphere cut out from bulk 
C     0.5   -0.9    0.6
C     0.1   -0.2    1.8
O     1.0    0.4    2.5
H    -0.4   -1.2   -0.1
H     1.1   -1.9    0.8
H     1.2   -0.3   -0.0
N    -1.2   -0.3    2.2
C    -1.8    0.3    3.4
C    -1.1    1.6    3.9
O    -0.8    1.8    5.0
H    -1.8   -0.7    1.5
H    -2.8    0.6    3.1
C    -2.0   -0.7    4.5
C    -0.8   -1.3    5.3
C     0.1   -2.2    4.5
N    -0.5   -3.2    3.7
C    -1.2   -4.3    4.2
N    -1.9   -5.0    3.2
N    -1.3   -4.7    5.4
H    -2.6   -1.5    4.1
H    -2.6   -0.2    5.3
H    -1.2   -1.8    6.1
H    -0.2   -0.5    5.7
H     0.8   -2.7    5.2
H     0.8   -1.6    3.9
H    -0.9   -2.9    2.8
H    -2.2   -5.9    3.6
H    -1.3   -5.2    2.4
H    -0.8   -4.1    6.0
N    -1.1    2.7    3.0
C    -1.4    2.7    1.6
H    -0.6    3.5    3.4
H    -1.6    3.8    1.3
H    -2.3    2.2    1.4
H    -0.6    2.3    0.9
