          35
 sphere cut out from bulk 
C    -0.2   -1.1    1.4
C    -0.7   -0.8    2.8
O    -0.2   -1.4    3.8
H    -0.0   -0.1    0.9
H    -0.9   -1.6    0.8
H     0.8   -1.6    1.5
N    -1.8   -0.0    3.0
C    -2.7    0.6    2.0
C    -2.5    2.0    1.6
O    -3.2    2.5    0.8
H    -2.1    0.0    4.0
H    -2.5    0.0    1.1
C    -4.1    0.3    2.5
C    -4.7    1.3    3.5
C    -3.9    1.6    4.8
N    -3.2    0.5    5.4
C    -2.2    0.7    6.4
N    -1.6   -0.5    6.7
N    -1.9    1.8    6.9
H    -4.2   -0.7    2.8
H    -4.8    0.4    1.6
H    -5.7    0.8    3.9
H    -5.0    2.2    3.1
H    -4.6    2.1    5.5
H    -3.1    2.3    4.5
H    -3.8   -0.3    5.6
H    -0.8   -0.3    7.3
H    -1.2   -1.0    5.9
H    -2.5    2.5    6.7
N    -1.5    2.8    2.2
C    -0.4    2.5    3.1
H    -1.5    3.7    1.8
H     0.1    3.5    3.3
H     0.3    1.8    2.8
H    -0.8    2.2    4.1
