          35
 sphere cut out from bulk 
C     0.3   -1.2    0.1
C     0.2   -0.9    1.6
O     1.2   -0.9    2.3
H     1.1   -0.6   -0.3
H    -0.6   -1.1   -0.4
H     0.7   -2.3    0.0
N    -1.0   -0.4    2.0
C    -1.3    0.0    3.4
C    -1.5   -1.2    4.3
O    -2.6   -1.5    4.7
H    -1.8   -0.4    1.4
H    -0.3    0.5    3.7
C    -2.4    1.0    3.4
C    -2.6    1.7    4.8
C    -4.0    2.4    4.9
N    -5.1    1.7    4.4
C    -5.8    0.8    5.3
N    -5.0   -0.1    6.0
N    -7.1    0.9    5.3
H    -3.4    0.5    3.1
H    -2.2    1.8    2.6
H    -1.8    2.4    4.9
H    -2.6    0.9    5.5
H    -3.9    3.3    4.2
H    -4.1    2.8    5.9
H    -5.8    2.2    4.0
H    -5.5   -0.8    6.5
H    -4.2   -0.5    5.5
H    -7.5    0.1    5.9
N    -0.4   -1.9    4.6
C    -0.4   -3.1    5.3
H     0.5   -1.6    4.1
H     0.5   -3.2    6.0
H    -0.4   -4.0    4.7
H    -1.3   -3.2    5.9
