          35
 sphere cut out from bulk 
C     1.5   -0.6    0.7
C     0.7   -1.3    1.7
O     1.2   -2.3    2.3
H     2.5   -0.2    1.1
H     1.0    0.3    0.2
H     1.8   -1.3   -0.1
N    -0.5   -0.8    2.0
C    -1.4   -1.4    2.9
C    -2.8   -1.0    2.5
O    -3.0   -0.1    1.7
H    -0.9   -0.0    1.4
H    -1.3   -2.5    2.8
C    -1.2   -1.0    4.4
C    -1.4    0.5    4.7
C    -1.1    0.8    6.2
N    -1.2    2.2    6.4
C    -0.9    2.7    7.7
N    -1.3    4.1    7.8
N    -0.4    2.0    8.6
H    -0.1   -1.3    4.6
H    -1.8   -1.6    5.0
H    -2.4    0.8    4.4
H    -0.7    1.1    4.1
H    -0.1    0.5    6.4
H    -1.8    0.2    6.8
H    -2.1    2.6    6.0
H    -0.9    4.5    8.6
H    -1.1    4.7    6.9
H    -0.1    2.5    9.4
N    -3.9   -1.7    3.0
C    -5.2   -1.4    2.7
H    -3.6   -2.5    3.6
H    -5.7   -2.3    2.2
H    -5.3   -0.6    2.1
H    -5.8   -1.2    3.6
