          35
 sphere cut out from bulk 
C     0.3   -0.3    1.7
C    -0.3   -0.6    3.1
O     0.3   -0.3    4.1
H     1.3   -0.7    1.7
H     0.3    0.7    1.5
H    -0.3   -0.8    0.9
N    -1.6   -1.2    3.1
C    -2.4   -1.3    4.3
C    -2.7   -2.8    4.7
O    -3.6   -3.0    5.5
H    -2.0   -1.3    2.2
H    -1.8   -0.9    5.1
C    -3.7   -0.5    4.2
C    -3.5    1.0    4.1
C    -4.8    1.8    4.1
N    -5.5    1.7    5.4
C    -5.2    2.5    6.5
N    -6.0    2.2    7.5
N    -4.3    3.4    6.6
H    -4.3   -0.7    5.1
H    -4.3   -0.8    3.3
H    -2.9    1.3    3.1
H    -2.8    1.4    4.9
H    -5.4    1.5    3.3
H    -4.6    2.9    3.9
H    -6.4    1.3    5.3
H    -6.2    1.2    7.7
H    -5.7    2.7    8.4
H    -3.8    3.6    5.7
N    -1.9   -3.7    4.1
C    -1.9   -5.1    4.5
H    -1.1   -3.4    3.5
H    -2.0   -5.7    3.6
H    -2.8   -5.2    5.2
H    -1.0   -5.4    5.0
