          35
 sphere cut out from bulk 
C     0.1    0.3    0.5
C    -0.1    0.5    2.0
O     0.8    0.9    2.7
H    -0.6    1.0   -0.1
H    -0.1   -0.7    0.2
H     1.1    0.6    0.2
N    -1.3    0.2    2.5
C    -2.5   -0.4    2.0
C    -2.4   -1.9    1.8
O    -1.3   -2.4    1.5
H    -1.3    0.3    3.5
H    -3.2   -0.3    2.9
C    -3.2    0.3    0.8
C    -3.2   -0.4   -0.5
C    -3.6    0.6   -1.7
N    -2.6    1.6   -1.9
C    -3.0    2.9   -1.6
N    -1.9    3.8   -1.9
N    -4.1    3.2   -1.0
H    -2.8    1.3    0.8
H    -4.3    0.5    1.1
H    -3.9   -1.2   -0.5
H    -2.2   -0.8   -0.7
H    -4.6    1.0   -1.5
H    -3.7   -0.0   -2.6
H    -1.9    1.5   -2.6
H    -2.0    4.8   -1.6
H    -1.0    3.5   -1.8
H    -4.1    4.2   -0.8
N    -3.5   -2.7    1.9
C    -4.8   -2.3    2.2
H    -3.3   -3.7    1.6
H    -5.4   -3.2    2.5
H    -5.3   -1.9    1.3
H    -4.9   -1.6    3.0
