          35
 sphere cut out from bulk 
C    -1.0   -0.7   -0.6
C    -1.1    0.2    0.6
O    -0.9    1.4    0.6
H    -1.7   -0.3   -1.4
H    -1.2   -1.7   -0.4
H     0.0   -0.6   -1.0
N    -1.5   -0.4    1.8
C    -1.5    0.3    3.0
C    -0.8   -0.7    4.0
O    -0.8   -1.9    3.9
H    -1.5   -1.4    1.8
H    -0.9    1.2    2.9
C    -2.9    0.7    3.5
C    -3.6    1.6    2.6
C    -4.9    2.1    3.1
N    -5.6    3.0    2.2
C    -6.9    3.4    2.4
N    -7.4    4.3    1.5
N    -7.5    3.0    3.4
H    -2.8    1.1    4.5
H    -3.5   -0.2    3.6
H    -3.7    1.2    1.6
H    -2.9    2.5    2.4
H    -4.8    2.6    4.1
H    -5.6    1.2    3.3
H    -5.0    3.6    1.7
H    -8.1    5.0    1.8
H    -6.7    4.7    0.8
H    -8.5    3.3    3.4
N    -0.3   -0.2    5.2
C    -0.2    1.2    5.6
H     0.1   -0.9    5.8
H     0.7    1.4    6.2
H    -1.1    1.6    6.1
H    -0.1    1.9    4.7
