          35
 sphere cut out from bulk 
C     0.2   -0.5    0.2
C     0.0   -0.2    1.7
O     0.8    0.5    2.4
H     1.3   -0.8    0.1
H     0.1    0.5   -0.3
H    -0.5   -1.2   -0.2
N    -1.1   -0.8    2.3
C    -1.5   -0.4    3.6
C    -2.2   -1.6    4.3
O    -3.1   -1.4    5.1
H    -1.8   -1.1    1.6
H    -0.5   -0.3    4.2
C    -2.2    0.9    3.7
C    -1.9    1.7    5.0
C    -2.1    3.2    4.8
N    -1.6    3.9    3.6
C    -0.3    4.3    3.5
N     0.7    3.3    3.8
N    -0.1    5.5    3.1
H    -3.3    0.7    3.7
H    -2.0    1.5    2.9
H    -0.8    1.6    5.2
H    -2.4    1.4    5.8
H    -1.8    3.8    5.7
H    -3.2    3.4    4.8
H    -2.2    4.6    3.3
H     1.6    3.6    3.7
H     0.5    2.4    3.5
H     0.9    5.6    2.9
N    -1.8   -2.8    4.0
C    -2.3   -4.0    4.6
H    -1.0   -2.9    3.3
H    -2.6   -4.8    3.9
H    -3.1   -3.8    5.2
H    -1.5   -4.5    5.3
