          35
 sphere cut out from bulk 
C     0.6   -1.8    3.1
C     0.0   -0.5    2.6
O     0.7    0.5    2.6
H     1.7   -1.8    3.0
H     0.2   -2.7    2.6
H     0.3   -1.9    4.2
N    -1.3   -0.5    2.1
C    -2.0   -1.6    1.4
C    -2.4   -2.7    2.4
O    -2.5   -3.9    2.0
H    -1.5    0.4    1.6
H    -3.0   -1.1    1.1
C    -1.3   -2.1    0.1
C    -1.3   -1.1   -1.1
C    -0.7    0.2   -0.9
N    -1.5    1.2   -0.3
C    -1.1    2.5   -0.1
N     0.2    2.6    0.5
N    -1.7    3.6   -0.4
H    -1.8   -3.0   -0.1
H    -0.2   -2.3    0.4
H    -2.4   -1.0   -1.4
H    -0.9   -1.7   -1.9
H    -0.4    0.6   -1.9
H     0.3    0.1   -0.4
H    -2.4    1.3   -0.7
H     0.5    3.6    0.8
H     0.4    1.9    1.2
H    -2.5    3.4   -0.9
N    -2.7   -2.3    3.6
C    -3.1   -3.2    4.7
H    -2.5   -1.4    3.9
H    -4.0   -2.9    5.2
H    -2.3   -3.3    5.5
H    -3.2   -4.2    4.2
