          35
 sphere cut out from bulk 
C     1.3    1.6    0.7
C     0.0    1.2    1.2
O    -0.7    1.9    2.0
H     1.1    2.4   -0.1
H     1.9    0.8    0.2
H     1.9    2.1    1.4
N    -0.4   -0.1    0.9
C    -1.7   -0.6    1.3
C    -1.6   -1.2    2.8
O    -1.6   -2.5    3.0
H     0.2   -0.7    0.3
H    -2.4    0.2    1.4
C    -2.2   -1.7    0.3
C    -2.7   -1.1   -1.0
C    -2.2   -1.8   -2.3
N    -0.8   -1.5   -2.6
C     0.3   -2.0   -1.9
N     0.2   -3.3   -1.5
N     1.4   -1.3   -1.6
H    -3.0   -2.2    0.8
H    -1.4   -2.4    0.1
H    -2.4   -0.0   -1.1
H    -3.8   -1.0   -1.0
H    -2.8   -1.5   -3.1
H    -2.3   -2.9   -2.1
H    -0.7   -0.5   -2.9
H     1.1   -3.7   -1.2
H    -0.2   -3.9   -2.2
H     1.2   -0.3   -1.9
N    -1.4   -0.3    3.7
C    -1.2   -0.6    5.1
H    -1.3    0.7    3.4
H    -1.8   -0.1    5.8
H    -0.1   -0.4    5.4
H    -1.4   -1.7    5.2
