          35
 sphere cut out from bulk 
C     0.1    0.2   -0.1
C     0.1    0.1    1.4
O     1.1    0.1    2.1
H     0.8   -0.6   -0.5
H     0.6    1.1   -0.4
H    -0.9    0.1   -0.5
N    -1.2    0.1    2.0
C    -1.4   -0.0    3.4
C    -2.8   -0.6    3.6
O    -3.6   -0.6    2.7
H    -2.0    0.0    1.4
H    -0.6   -0.7    3.8
C    -1.2    1.3    4.2
C    -2.1    2.4    3.8
C    -1.8    3.8    4.4
N    -2.6    4.9    4.0
C    -2.4    5.5    2.8
N    -3.4    6.5    2.5
N    -1.4    5.4    2.0
H    -0.1    1.6    4.0
H    -1.2    1.1    5.3
H    -3.2    2.1    4.0
H    -2.1    2.5    2.7
H    -0.8    4.0    4.3
H    -2.0    3.6    5.5
H    -3.6    4.8    4.2
H    -3.1    7.0    1.7
H    -3.7    7.0    3.3
H    -0.8    4.6    2.3
N    -3.0   -1.1    4.9
C    -4.3   -1.6    5.2
H    -2.3   -1.1    5.5
H    -4.7   -1.1    6.1
H    -4.3   -2.7    5.5
H    -5.0   -1.5    4.4
