          35
 sphere cut out from bulk 
C     0.7   -0.5    0.8
C    -0.0    0.4    1.8
O     0.3    1.5    2.1
H     1.4    0.2    0.2
H     0.0   -1.0    0.1
H     1.3   -1.3    1.2
N    -1.1   -0.2    2.4
C    -1.8   -1.5    2.2
C    -0.8   -2.7    2.4
O    -0.6   -3.5    1.5
H    -1.6    0.5    3.1
H    -2.5   -1.6    3.1
C    -2.6   -1.6    0.9
C    -3.9   -2.4    1.1
C    -3.8   -3.9    1.3
N    -5.0   -4.6    1.4
C    -5.2   -5.9    1.9
N    -4.1   -6.5    2.4
N    -6.3   -6.5    1.8
H    -2.0   -2.0    0.1
H    -2.9   -0.6    0.7
H    -4.5   -2.3    0.2
H    -4.5   -2.0    1.9
H    -3.2   -4.0    2.3
H    -3.1   -4.3    0.5
H    -5.8   -4.2    0.8
H    -4.3   -7.4    2.6
H    -3.2   -6.3    2.0
H    -7.1   -6.0    1.5
N    -0.2   -2.8    3.6
C    -0.3   -2.0    4.8
H     0.5   -3.6    3.6
H     0.1   -2.5    5.6
H    -1.3   -1.7    5.0
H     0.3   -1.0    4.7
