          35
 sphere cut out from bulk 
C    -0.0    0.2    0.4
C    -0.2    0.1    1.9
O     0.8    0.1    2.7
H     0.7   -0.6    0.1
H     0.5    1.2    0.2
H    -0.9    0.1   -0.1
N    -1.4    0.1    2.5
C    -2.8    0.2    2.0
C    -3.1   -0.7    0.8
O    -3.8   -0.3   -0.1
H    -1.4    0.1    3.5
H    -3.4   -0.1    2.8
C    -3.2    1.7    1.7
C    -2.5    2.6    0.7
C    -1.3    3.4    1.3
N    -0.6    4.0    0.3
C     0.6    4.8    0.6
N     1.0    5.5   -0.5
N     1.2    4.8    1.7
H    -3.3    2.2    2.7
H    -4.3    1.6    1.4
H    -3.2    3.3    0.3
H    -2.1    1.9   -0.1
H    -0.6    2.7    1.9
H    -1.7    4.1    2.1
H    -1.2    4.4   -0.5
H     1.9    5.9   -0.3
H     1.0    5.0   -1.4
H     0.7    4.4    2.4
N    -2.5   -1.9    0.9
C    -2.7   -3.0   -0.2
H    -1.9   -2.1    1.6
H    -3.0   -3.9    0.3
H    -1.8   -3.1   -0.7
H    -3.5   -2.6   -0.8
