          35
 sphere cut out from bulk 
C    -1.3    1.8    0.1
C    -0.8    1.2    1.4
O     0.3    0.9    1.6
H    -0.7    1.4   -0.7
H    -1.1    2.9    0.2
H    -2.4    1.6   -0.1
N    -1.8    1.0    2.4
C    -1.6    0.2    3.6
C    -2.7   -0.9    3.6
O    -3.8   -0.7    3.2
H    -2.8    1.1    2.1
H    -0.6   -0.2    3.5
C    -1.7    1.1    4.9
C    -0.4    1.9    5.2
C     0.0    3.0    4.3
N    -1.0    4.0    4.0
C    -1.1    4.7    2.9
N    -2.2    5.6    2.9
N    -0.4    4.7    1.8
H    -1.9    0.5    5.7
H    -2.5    1.8    4.7
H     0.4    1.2    5.4
H    -0.6    2.4    6.2
H     0.3    2.5    3.3
H     0.9    3.5    4.7
H    -1.4    4.5    4.8
H    -2.3    6.1    2.0
H    -3.0    5.3    3.2
H     0.5    4.0    2.0
N    -2.2   -2.0    4.2
C    -3.1   -3.1    4.5
H    -1.3   -2.1    4.5
H    -3.2   -3.4    5.5
H    -2.8   -4.0    3.9
H    -4.1   -2.9    4.1
