          35
 sphere cut out from bulk 
C     1.0   -1.5    1.5
C     0.2   -1.4    2.8
O     0.4   -2.1    3.8
H     0.9   -2.5    1.1
H     2.1   -1.3    1.8
H     0.7   -0.8    0.7
N    -0.8   -0.4    2.7
C    -1.7   -0.1    3.9
C    -2.9   -1.1    4.0
O    -4.0   -0.8    3.8
H    -1.0    0.1    1.9
H    -1.1   -0.3    4.8
C    -2.1    1.4    3.8
C    -3.0    1.9    5.0
C    -2.6    1.5    6.4
N    -3.2    0.2    6.7
C    -2.6   -0.7    7.6
N    -3.3   -1.9    7.7
N    -1.6   -0.5    8.4
H    -2.6    1.5    2.9
H    -1.2    1.9    3.8
H    -4.0    1.6    4.8
H    -3.0    3.0    4.9
H    -2.9    2.3    7.1
H    -1.5    1.5    6.5
H    -3.8   -0.2    6.0
H    -3.0   -2.4    8.5
H    -4.3   -1.8    7.7
H    -1.1    0.4    8.2
N    -2.5   -2.4    4.2
C    -3.4   -3.5    4.4
H    -1.5   -2.5    4.4
H    -3.0   -4.4    3.9
H    -4.4   -3.2    4.0
H    -3.5   -3.7    5.5
