          35
 sphere cut out from bulk 
C     1.6    0.5    0.9
C     0.6    0.9    2.1
O     0.9    1.8    2.9
H     2.4    0.1    1.4
H     1.9    1.4    0.4
H     1.1   -0.2    0.2
N    -0.6    0.2    2.1
C    -1.6    0.4    3.1
C    -1.8    1.8    3.7
O    -1.8    2.1    4.9
H    -0.7   -0.5    1.4
H    -2.6    0.1    2.6
C    -1.4   -0.6    4.3
C    -0.1   -0.6    5.0
C     0.0   -1.7    6.1
N    -0.8   -1.5    7.2
C    -0.5   -0.7    8.3
N    -1.5   -0.6    9.3
N     0.6   -0.0    8.5
H    -1.6   -1.6    3.9
H    -2.2   -0.4    5.0
H     0.1    0.4    5.4
H     0.7   -0.8    4.3
H     1.1   -1.8    6.4
H    -0.2   -2.7    5.6
H    -1.8   -1.6    7.1
H    -1.9   -1.5    9.5
H    -1.1   -0.1   10.1
H     1.2   -0.0    7.7
N    -2.1    2.8    2.8
C    -2.1    2.8    1.3
H    -2.1    3.7    3.2
H    -2.7    3.6    0.9
H    -2.5    1.8    0.9
H    -1.1    2.9    0.9
