          35
 sphere cut out from bulk 
C    -2.1   -0.5    3.9
C    -0.9   -0.5    2.9
O    -1.0   -0.9    1.8
H    -1.8   -0.2    4.9
H    -2.5   -1.6    4.0
H    -2.9    0.1    3.5
N     0.2    0.0    3.4
C     1.4    0.3    2.6
C     2.7   -0.5    3.0
O     3.8   -0.2    2.5
H     0.2    0.5    4.4
H     1.1    0.0    1.6
C     1.7    1.8    2.6
C     0.7    2.7    1.9
C     0.8    4.2    2.2
N     0.7    4.6    3.6
C    -0.5    5.1    4.2
N    -1.6    4.8    3.4
N    -0.5    5.7    5.3
H     2.7    2.0    2.1
H     1.8    2.2    3.7
H    -0.3    2.4    2.2
H     0.7    2.5    0.8
H     0.1    4.8    1.6
H     1.9    4.5    1.8
H     1.6    4.8    4.0
H    -2.4    5.1    4.0
H    -1.7    3.9    3.0
H     0.4    5.9    5.6
N     2.4   -1.6    3.7
C     3.5   -2.5    4.0
H     1.5   -1.8    4.0
H     3.3   -3.5    3.5
H     3.5   -2.7    5.1
H     4.4   -2.1    3.7
