          35
 sphere cut out from bulk 
C     1.7   -1.0    1.0
C     1.2   -0.5    2.3
O     1.9   -0.2    3.2
H     0.9   -1.3    0.3
H     2.4   -1.8    1.1
H     2.2   -0.2    0.5
N    -0.2   -0.4    2.4
C    -0.9   -0.1    3.6
C    -0.3    1.2    4.3
O    -0.2    1.2    5.5
H    -0.8   -0.8    1.6
H    -1.9    0.2    3.3
C    -0.9   -1.3    4.6
C    -2.1   -2.2    4.5
C    -2.4   -2.8    3.1
N    -3.4   -2.1    2.3
C    -3.3   -1.6    1.1
N    -4.5   -1.1    0.5
N    -2.1   -1.5    0.5
H    -0.9   -0.9    5.6
H     0.0   -1.8    4.5
H    -3.0   -1.7    4.8
H    -2.0   -3.1    5.2
H    -2.8   -3.9    3.2
H    -1.5   -2.9    2.5
H    -4.3   -1.9    2.8
H    -4.4   -0.8   -0.4
H    -5.3   -1.7    0.7
H    -2.2   -1.2   -0.5
N    -0.2    2.3    3.6
C    -0.3    2.5    2.1
H     0.2    3.1    4.1
H    -0.5    3.6    2.0
H    -1.2    2.0    1.8
H     0.5    2.2    1.6
