          35
 sphere cut out from bulk 
C     0.7    0.2    1.6
C    -0.0   -0.3    2.8
O     0.5   -0.5    3.9
H     1.6    0.7    2.0
H     0.1    0.9    1.0
H     1.0   -0.6    1.0
N    -1.4   -0.7    2.7
C    -2.3   -0.6    1.5
C    -1.6   -1.2    0.2
O    -1.5   -0.5   -0.8
H    -1.8   -1.0    3.5
H    -3.1   -1.2    1.8
C    -2.8    0.8    1.3
C    -4.1    0.9    0.5
C    -4.7    2.3    0.3
N    -3.9    3.3   -0.4
C    -3.9    3.3   -1.8
N    -3.0    4.2   -2.3
N    -4.7    2.6   -2.6
H    -2.0    1.4    0.8
H    -3.0    1.3    2.3
H    -4.8    0.3    0.9
H    -3.9    0.5   -0.5
H    -4.8    2.7    1.4
H    -5.7    2.3   -0.1
H    -3.0    3.5   -0.0
H    -3.1    4.3   -3.4
H    -3.0    5.1   -1.9
H    -5.2    1.9   -2.1
N    -1.3   -2.5    0.2
C    -1.5   -3.5    1.3
H    -0.9   -2.8   -0.6
H    -0.7   -3.4    2.1
H    -2.5   -3.4    1.8
H    -1.4   -4.5    0.9
