          35
 sphere cut out from bulk 
C    -0.1    0.2    0.2
C    -0.1    0.0    1.7
O     0.9    0.1    2.3
H    -0.1    1.3   -0.0
H    -1.0   -0.2   -0.3
H     0.8   -0.2   -0.2
N    -1.3   -0.2    2.4
C    -2.7   -0.0    1.9
C    -3.1   -1.1    0.9
O    -4.1   -0.9    0.1
H    -1.2   -0.2    3.4
H    -3.3   -0.2    2.8
C    -3.0    1.4    1.3
C    -2.8    2.5    2.3
C    -3.2    3.9    1.8
N    -3.0    5.0    2.7
C    -3.9    5.2    3.7
N    -3.5    6.2    4.6
N    -5.1    4.7    3.9
H    -4.1    1.4    1.0
H    -2.5    1.6    0.4
H    -1.7    2.5    2.6
H    -3.4    2.3    3.2
H    -4.2    3.9    1.4
H    -2.5    4.1    0.9
H    -2.0    5.2    3.0
H    -4.2    6.5    5.2
H    -3.0    7.0    4.2
H    -5.2    3.9    3.2
N    -2.4   -2.3    1.0
C    -2.7   -3.5    0.2
H    -1.6   -2.3    1.6
H    -3.0   -4.3    0.8
H    -1.9   -3.7   -0.5
H    -3.6   -3.2   -0.4
