          35
 sphere cut out from bulk 
C     0.5    0.8    4.4
C    -0.8    0.1    4.9
O    -1.4    0.4    5.9
H     1.1    0.8    5.3
H     0.2    1.8    4.1
H     0.9    0.3    3.6
N    -1.4   -0.8    4.0
C    -2.7   -1.3    4.2
C    -2.8   -2.8    3.9
O    -3.9   -3.4    3.5
H    -0.9   -0.8    3.1
H    -2.9   -1.2    5.2
C    -3.7   -0.5    3.3
C    -5.1   -0.4    3.9
C    -5.2    0.2    5.3
N    -4.3    1.4    5.6
C    -4.3    2.5    4.8
N    -5.5    2.8    4.2
N    -3.3    3.3    4.7
H    -3.8   -1.0    2.3
H    -3.3    0.5    3.2
H    -5.6   -1.4    4.0
H    -5.7    0.2    3.2
H    -4.9   -0.6    6.1
H    -6.2    0.5    5.6
H    -3.4    1.1    5.9
H    -6.4    2.6    4.8
H    -5.5    3.8    3.9
H    -2.5    2.9    5.1
N    -1.6   -3.5    4.2
C    -1.6   -5.0    4.1
H    -0.8   -3.0    4.5
H    -0.8   -5.3    3.5
H    -2.5   -5.3    3.7
H    -1.4   -5.4    5.1
