          35
 sphere cut out from bulk 
C    -0.0    1.2    0.3
C    -0.1    0.8    1.8
O     0.9    1.0    2.6
H     0.2    2.2    0.2
H    -0.9    0.9   -0.2
H     0.8    0.6   -0.1
N    -1.2    0.2    2.2
C    -1.4   -0.3    3.6
C    -2.1   -1.7    3.4
O    -2.8   -1.9    2.4
H    -1.9   -0.1    1.6
H    -0.4   -0.4    4.0
C    -2.2    0.6    4.5
C    -1.6    2.0    4.7
C    -2.3    2.8    5.8
N    -2.2    2.2    7.1
C    -3.0    2.7    8.1
N    -2.6    2.1    9.4
N    -4.0    3.5    8.1
H    -2.3    0.1    5.5
H    -3.2    0.7    4.1
H    -1.5    2.5    3.8
H    -0.5    1.8    5.0
H    -3.4    2.9    5.5
H    -1.9    3.9    5.7
H    -1.3    2.0    7.4
H    -3.3    2.4   10.1
H    -2.5    1.1    9.3
H    -4.0    4.0    7.2
N    -1.9   -2.6    4.4
C    -1.1   -2.5    5.6
H    -2.5   -3.4    4.2
H    -0.8   -3.5    5.9
H    -1.7   -2.0    6.4
H    -0.2   -1.9    5.4
