          35
 sphere cut out from bulk 
C     1.0   -2.6    2.4
C     0.6   -1.7    3.5
O     1.0   -1.8    4.7
H     0.8   -3.6    2.7
H     2.0   -2.4    2.2
H     0.4   -2.4    1.5
N    -0.3   -0.7    3.2
C    -0.8    0.3    4.2
C    -2.3    0.4    4.0
O    -2.9    1.4    3.6
H    -0.7   -0.6    2.2
H    -0.6   -0.2    5.1
C    -0.1    1.6    4.2
C     0.5    2.2    2.9
C    -0.4    2.9    1.9
N    -1.4    2.0    1.2
C    -1.1    0.9    0.5
N     0.1    1.0   -0.2
N    -1.8   -0.2    0.5
H     0.8    1.5    4.9
H    -0.7    2.4    4.6
H     1.1    1.4    2.3
H     1.3    2.9    3.1
H     0.2    3.4    1.1
H    -0.9    3.7    2.4
H    -2.2    1.9    1.9
H     0.3    1.9   -0.5
H     0.1    0.2   -0.9
H    -2.6   -0.1    1.1
N    -3.1   -0.7    4.4
C    -2.6   -2.0    4.8
H    -4.1   -0.6    4.2
H    -2.4   -2.7    4.0
H    -3.4   -2.5    5.4
H    -1.7   -1.9    5.4
