          35
 sphere cut out from bulk 
C    -1.7    0.9    1.2
C    -1.1    0.1    2.3
O    -0.1    0.5    3.0
H    -1.0    1.1    0.4
H    -1.9    1.9    1.6
H    -2.7    0.5    0.8
N    -1.6   -1.1    2.5
C    -1.3   -2.0    3.6
C     0.0   -2.8    3.4
O     0.1   -4.0    3.5
H    -2.5   -1.4    1.9
H    -1.1   -1.3    4.5
C    -2.5   -2.9    4.0
C    -2.9   -3.9    2.9
C    -4.4   -4.1    2.7
N    -4.9   -3.9    1.3
C    -4.7   -2.7    0.7
N    -4.6   -2.8   -0.7
N    -4.5   -1.5    1.2
H    -3.3   -2.3    4.2
H    -2.2   -3.5    4.9
H    -2.4   -4.9    3.0
H    -2.5   -3.6    1.9
H    -5.0   -3.4    3.3
H    -4.8   -5.1    3.0
H    -4.7   -4.7    0.7
H    -5.2   -3.5   -1.1
H    -4.8   -1.8   -1.2
H    -4.6   -1.6    2.2
N     1.1   -2.0    3.1
C     2.4   -2.5    2.9
H     0.9   -1.0    3.1
H     2.8   -2.3    1.9
H     2.4   -3.6    2.9
H     3.1   -2.2    3.6
