          35
 sphere cut out from bulk 
C     0.1    0.2    0.0
C     0.0   -0.2    1.5
O     1.0   -0.4    2.1
H     0.6   -0.6   -0.5
H     0.6    1.1   -0.1
H    -0.9    0.3   -0.5
N    -1.2   -0.2    2.0
C    -1.5   -0.5    3.4
C    -2.3   -1.8    3.6
O    -3.6   -1.7    3.7
H    -2.0   -0.0    1.4
H    -0.5   -0.6    3.9
C    -2.2    0.7    4.1
C    -2.4    0.5    5.6
C    -3.9    0.8    6.0
N    -4.3    0.3    7.3
C    -4.5   -1.0    7.6
N    -4.9   -1.8    6.6
N    -4.5   -1.4    8.9
H    -3.2    0.8    3.6
H    -1.6    1.6    3.9
H    -1.7    1.1    6.2
H    -2.3   -0.6    5.9
H    -4.6    0.5    5.3
H    -4.0    1.9    6.0
H    -3.9    0.8    8.2
H    -4.9   -2.8    6.8
H    -4.6   -1.6    5.6
H    -4.7   -2.3    9.0
N    -1.7   -3.0    3.5
C    -0.3   -3.3    3.4
H    -2.3   -3.8    3.6
H     0.1   -3.8    4.2
H     0.3   -2.3    3.2
H    -0.1   -3.9    2.5
