          35
 sphere cut out from bulk 
C    -0.3    1.5    1.0
C    -0.3    0.0    1.4
O     0.6   -0.7    1.3
H    -0.7    1.6   -0.0
H     0.8    1.8    0.9
H    -0.8    2.2    1.6
N    -1.5   -0.4    2.0
C    -2.9    0.1    1.7
C    -3.4    1.0    2.8
O    -4.0    2.1    2.5
H    -1.5   -1.4    2.1
H    -2.8    0.8    0.8
C    -3.8   -1.1    1.4
C    -3.7   -1.6   -0.0
C    -2.4   -2.1   -0.6
N    -1.5   -2.9    0.3
C    -1.8   -4.2    0.5
N    -0.8   -4.9    1.3
N    -2.9   -4.8    0.0
H    -4.8   -0.7    1.6
H    -3.6   -1.9    2.1
H    -4.1   -0.9   -0.7
H    -4.4   -2.5   -0.1
H    -1.7   -1.2   -0.8
H    -2.5   -2.6   -1.5
H    -0.6   -2.6    0.5
H    -0.8   -5.9    1.2
H     0.1   -4.4    1.4
H    -2.9   -5.8    0.3
N    -3.3    0.7    4.1
C    -2.7   -0.5    4.7
H    -3.7    1.4    4.8
H    -3.0   -0.5    5.8
H    -1.6   -0.5    4.7
H    -3.0   -1.4    4.3
