          35
 sphere cut out from bulk 
C    -0.7   -1.3   -0.9
C    -0.7   -0.8    0.6
O    -0.1   -1.4    1.5
H    -0.9   -2.4   -0.9
H    -1.3   -0.8   -1.6
H     0.4   -1.2   -1.2
N    -1.6    0.2    0.8
C    -1.7    0.9    2.1
C    -3.1    0.9    2.6
O    -3.8    2.0    2.7
H    -2.0    0.7    0.0
H    -1.1    0.2    2.8
C    -1.0    2.3    2.1
C    -1.4    3.2    1.0
C    -1.0    4.7    1.3
N    -1.4    5.2    2.6
C    -2.7    5.7    2.9
N    -3.7    5.0    2.4
N    -2.7    6.9    3.5
H     0.1    2.1    2.1
H    -1.2    2.7    3.1
H    -2.5    3.2    0.9
H    -1.0    3.0    0.1
H    -1.4    5.3    0.5
H     0.1    4.8    1.2
H    -0.7    5.8    3.0
H    -4.7    5.3    2.7
H    -3.7    4.0    2.5
H    -3.7    7.1    3.8
N    -3.8   -0.3    2.8
C    -3.2   -1.6    2.7
H    -4.7   -0.2    3.1
H    -3.4   -2.1    1.7
H    -3.7   -2.2    3.5
H    -2.1   -1.6    2.9
