          35
 sphere cut out from bulk 
C     0.9    3.0    2.2
C     0.5    1.8    3.1
O     1.0    1.7    4.2
H     1.9    3.3    2.4
H     0.2    3.9    2.5
H     0.7    2.8    1.1
N    -0.5    1.0    2.6
C    -1.0   -0.1    3.3
C    -1.8   -0.9    2.3
O    -2.2   -0.4    1.3
H    -0.9    1.1    1.7
H    -0.1   -0.7    3.7
C    -1.8    0.3    4.6
C    -3.1    1.1    4.2
C    -3.5    2.1    5.3
N    -3.0    3.4    5.3
C    -1.6    3.7    5.3
N    -0.9    3.1    6.4
N    -1.1    4.6    4.5
H    -1.1    0.9    5.2
H    -2.1   -0.6    5.2
H    -3.9    0.4    4.0
H    -2.9    1.7    3.3
H    -3.3    1.6    6.3
H    -4.6    2.2    5.3
H    -3.4    4.0    4.5
H     0.1    2.8    6.1
H    -1.4    2.4    6.9
H    -0.1    4.8    4.8
N    -2.1   -2.2    2.6
C    -1.8   -3.0    3.8
H    -2.7   -2.7    2.0
H    -0.8   -2.7    4.2
H    -1.7   -4.0    3.6
H    -2.5   -2.9    4.7
