          35
 sphere cut out from bulk 
C     0.2   -0.1    2.9
C     0.1    0.2    1.4
O     1.0   -0.1    0.6
H    -0.6   -0.8    3.1
H     0.1    0.7    3.5
H     1.2   -0.7    3.0
N    -1.0    0.9    1.0
C    -2.2    1.3    1.8
C    -3.2    0.2    2.2
O    -4.0    0.4    3.0
H    -1.0    1.1    0.0
H    -1.8    1.6    2.8
C    -2.9    2.5    1.2
C    -3.6    2.3   -0.1
C    -5.0    1.6   -0.1
N    -5.9    2.0    0.9
C    -6.4    3.3    0.9
N    -6.7    3.8   -0.3
N    -6.5    4.0    2.0
H    -2.1    3.3    1.1
H    -3.6    2.9    2.0
H    -3.0    1.9   -0.9
H    -3.8    3.4   -0.5
H    -4.8    0.5    0.1
H    -5.4    1.6   -1.1
H    -5.7    1.8    1.9
H    -7.1    3.1   -1.0
H    -7.2    4.7   -0.3
H    -7.0    4.9    1.9
N    -3.2   -1.1    1.6
C    -2.5   -1.5    0.3
H    -3.9   -1.7    1.9
H    -3.0   -2.5    0.0
H    -1.4   -1.8    0.5
H    -2.6   -0.8   -0.5
