          35
 sphere cut out from bulk 
C    -1.4   -1.3    0.7
C    -1.4   -1.0    2.2
O    -0.4   -0.5    2.7
H    -1.9   -0.4    0.2
H    -2.0   -2.2    0.5
H    -0.4   -1.4    0.4
N    -2.5   -1.3    3.0
C    -3.8   -1.8    2.7
C    -3.9   -3.0    1.7
O    -4.7   -3.0    0.8
H    -2.3   -1.0    4.0
H    -4.1   -2.3    3.7
C    -4.9   -0.8    2.5
C    -4.6    0.3    1.4
C    -4.9   -0.1   -0.0
N    -5.0    1.1   -0.9
C    -3.8    1.7   -1.4
N    -4.1    2.9   -2.1
N    -2.7    1.2   -1.1
H    -5.0   -0.2    3.5
H    -5.8   -1.3    2.3
H    -3.6    0.7    1.5
H    -5.3    1.2    1.7
H    -5.9   -0.6   -0.1
H    -4.2   -0.7   -0.4
H    -5.8    1.7   -0.8
H    -3.3    3.2   -2.6
H    -4.9    2.8   -2.7
H    -1.9    1.7   -1.6
N    -3.1   -4.1    2.0
C    -2.1   -4.3    3.0
H    -3.2   -4.8    1.3
H    -1.9   -5.4    3.1
H    -2.5   -4.0    4.0
H    -1.1   -3.8    2.8
