          35
 sphere cut out from bulk 
C     0.4    0.2   -0.2
C     0.3   -0.2    1.2
O     1.3   -0.8    1.8
H     0.5   -0.7   -0.8
H     1.2    0.8   -0.4
H    -0.5    0.8   -0.6
N    -0.8    0.1    1.9
C    -1.2   -0.1    3.3
C    -1.2    1.0    4.3
O    -2.1    1.1    5.1
H    -1.5    0.7    1.4
H    -2.3   -0.3    3.2
C    -0.7   -1.4    3.9
C     0.6   -1.4    4.7
C     1.0   -2.7    5.3
N     2.3   -2.6    6.0
C     2.8   -3.6    6.8
N     1.9   -4.6    7.2
N     4.0   -3.6    7.4
H    -0.6   -2.2    3.1
H    -1.5   -1.8    4.6
H     0.5   -0.6    5.5
H     1.4   -1.0    4.0
H     1.0   -3.5    4.5
H     0.2   -3.0    6.0
H     3.0   -2.1    5.5
H     2.4   -5.3    7.7
H     1.4   -5.0    6.5
H     4.5   -2.7    7.1
N    -0.2    2.0    4.3
C     1.1    2.0    3.5
H    -0.3    2.7    5.0
H     1.8    2.5    4.0
H     0.9    2.6    2.5
H     1.4    1.0    3.2
