          35
 sphere cut out from bulk 
C    -0.1   -0.2    0.1
C    -0.0    0.1    1.6
O     1.0    0.4    2.1
H    -1.1   -0.4   -0.3
H     0.5   -1.1   -0.1
H     0.3    0.6   -0.4
N    -1.2   -0.1    2.2
C    -1.6    0.1    3.6
C    -2.4    1.3    4.0
O    -3.4    1.2    4.6
H    -2.0   -0.3    1.6
H    -2.3   -0.7    3.8
C    -0.4   -0.2    4.7
C     0.1   -1.6    4.6
C     1.3   -1.8    5.6
N     1.9   -3.1    5.6
C     1.3   -4.2    6.2
N     2.0   -5.4    5.9
N     0.3   -4.2    7.0
H    -0.9   -0.0    5.7
H     0.4    0.6    4.5
H     0.5   -1.8    3.6
H    -0.6   -2.4    4.8
H     1.0   -1.6    6.6
H     2.1   -1.0    5.3
H     2.4   -3.3    4.7
H     1.6   -6.1    6.5
H     3.0   -5.3    6.0
H    -0.2   -3.3    7.0
N    -1.9    2.6    3.7
C    -0.7    3.0    2.9
H    -2.5    3.3    4.0
H     0.1    2.2    3.0
H    -0.4    3.9    3.3
H    -0.9    3.1    1.9
