          35
 sphere cut out from bulk 
C     0.1    0.3    0.2
C    -0.1    0.7    1.6
O     0.8    1.4    2.2
H     1.0    0.7   -0.2
H    -0.8    0.6   -0.4
H     0.1   -0.8    0.2
N    -1.1    0.3    2.4
C    -2.5   -0.1    1.9
C    -2.4   -1.3    1.1
O    -1.9   -2.4    1.5
H    -1.1    0.7    3.3
H    -3.0   -0.4    2.8
C    -3.2    1.1    1.3
C    -3.6    2.2    2.3
C    -2.6    3.0    3.2
N    -2.3    2.2    4.4
C    -1.2    2.7    5.2
N    -1.6    2.6    6.6
N    -0.0    3.0    4.9
H    -4.2    0.8    0.9
H    -2.6    1.6    0.5
H    -4.4    1.8    3.0
H    -4.2    3.0    1.8
H    -2.9    4.0    3.4
H    -1.6    3.0    2.6
H    -3.1    2.0    4.9
H    -0.8    2.9    7.2
H    -2.5    3.0    6.8
H     0.2    2.8    3.9
N    -3.0   -1.3   -0.2
C    -3.0   -2.4   -1.1
H    -3.3   -0.4   -0.5
H    -4.0   -2.5   -1.5
H    -2.7   -3.3   -0.5
H    -2.2   -2.3   -1.9
