          35
 sphere cut out from bulk 
C    -0.3   -1.3   -0.8
C     0.1   -0.1    0.1
O     1.0    0.7   -0.2
H     0.5   -1.4   -1.5
H    -1.2   -1.1   -1.4
H    -0.4   -2.2   -0.2
N    -0.6    0.1    1.2
C    -2.0   -0.3    1.6
C    -2.0   -1.9    1.9
O    -1.2   -2.3    2.8
H    -0.3    0.9    1.7
H    -2.1    0.1    2.6
C    -3.1    0.3    0.7
C    -3.1    1.8    0.8
C    -3.1    2.6   -0.5
N    -1.9    2.4   -1.3
C    -1.8    1.5   -2.4
N    -0.5    1.4   -2.9
N    -2.7    0.8   -2.9
H    -4.0   -0.1    1.0
H    -2.9    0.0   -0.3
H    -2.3    2.2    1.4
H    -4.0    2.1    1.4
H    -3.3    3.6   -0.4
H    -4.0    2.2   -1.1
H    -1.1    2.9   -1.1
H    -0.4    0.8   -3.6
H     0.2    1.4   -2.2
H    -3.6    1.0   -2.6
N    -2.8   -2.8    1.2
C    -3.6   -2.6    0.0
H    -2.6   -3.7    1.6
H    -4.6   -2.2    0.2
H    -3.8   -3.7   -0.3
H    -3.1   -2.1   -0.8
