          35
 sphere cut out from bulk 
C     0.1   -0.1    0.0
C     0.1   -0.1    1.5
O     1.1   -0.2    2.1
H    -0.6   -0.9   -0.4
H     1.1   -0.2   -0.3
H    -0.3    0.9   -0.3
N    -1.1   -0.0    2.3
C    -2.5    0.0    2.0
C    -3.3   -1.1    2.7
O    -4.2   -0.9    3.4
H    -0.9   -0.0    3.3
H    -2.9    0.9    2.6
C    -3.0    0.3    0.6
C    -4.5    0.5    0.5
C    -4.9    0.7   -1.0
N    -6.4    1.0   -1.1
C    -6.9    1.4   -2.3
N    -8.3    1.4   -2.2
N    -6.2    1.7   -3.3
H    -2.5    1.1    0.2
H    -2.7   -0.6   -0.1
H    -5.0   -0.4    0.9
H    -4.8    1.4    1.1
H    -4.6   -0.1   -1.6
H    -4.4    1.6   -1.4
H    -7.0    0.3   -0.6
H    -8.7    1.7   -1.3
H    -8.8    1.9   -3.0
H    -6.8    2.1   -4.0
N    -2.9   -2.4    2.4
C    -1.8   -2.9    1.6
H    -3.5   -3.1    2.9
H    -0.8   -2.8    2.0
H    -2.0   -4.0    1.4
H    -1.8   -2.5    0.5
