          35
 sphere cut out from bulk 
C    -1.9    3.1    2.2
C    -1.5    1.6    2.2
O    -0.7    1.2    1.4
H    -1.0    3.7    2.5
H    -2.7    3.4    2.9
H    -2.2    3.4    1.2
N    -2.2    0.9    3.0
C    -1.9   -0.6    3.2
C    -3.2   -1.4    3.0
O    -3.8   -2.0    3.9
H    -2.9    1.3    3.7
H    -1.2   -0.8    2.4
C    -1.3   -0.8    4.6
C    -1.6    0.1    5.8
C    -3.0    0.1    6.3
N    -3.8    1.1    5.5
C    -5.2    1.0    5.4
N    -5.7   -0.2    5.3
N    -5.9    2.1    5.5
H    -0.2   -0.8    4.4
H    -1.5   -1.9    4.8
H    -0.9   -0.3    6.6
H    -1.2    1.1    5.6
H    -3.0    0.4    7.3
H    -3.5   -0.8    6.2
H    -3.6    2.1    5.7
H    -6.7   -0.3    5.1
H    -5.1   -1.0    4.9
H    -6.9    2.0    5.3
N    -3.8   -1.4    1.8
C    -3.3   -0.7    0.6
H    -4.6   -1.9    1.7
H    -3.5   -1.4   -0.3
H    -2.2   -0.6    0.6
H    -3.8    0.3    0.4
