          35
 sphere cut out from bulk 
C    -0.1    0.5    0.2
C    -0.1    0.3    1.7
O     1.0    0.4    2.3
H     0.9    0.4   -0.2
H    -0.5    1.6    0.0
H    -0.8   -0.1   -0.3
N    -1.2   -0.1    2.4
C    -2.6   -0.1    1.9
C    -2.9   -1.3    0.9
O    -3.9   -1.2    0.2
H    -1.1   -0.1    3.4
H    -3.2   -0.3    2.8
C    -3.1    1.3    1.3
C    -4.6    1.5    1.5
C    -5.0    2.9    0.9
N    -4.4    4.1    1.5
C    -3.3    4.7    1.0
N    -2.9    5.8    1.8
N    -2.8    4.3   -0.1
H    -2.9    1.3    0.2
H    -2.5    2.1    1.8
H    -4.8    1.5    2.6
H    -5.2    0.7    1.0
H    -6.1    3.0    1.0
H    -4.8    2.9   -0.1
H    -4.5    4.2    2.5
H    -2.2    6.3    1.4
H    -3.6    6.3    2.2
H    -2.1    5.0   -0.4
N    -2.1   -2.3    1.1
C    -2.2   -3.5    0.3
H    -1.3   -2.2    1.7
H    -2.4   -4.4    0.9
H    -1.4   -3.7   -0.4
H    -3.2   -3.5   -0.3
