          35
 sphere cut out from bulk 
C    -2.1    0.4    4.1
C    -1.1    0.8    3.0
O    -1.4    1.5    2.0
H    -2.0    1.2    4.8
H    -1.9   -0.6    4.5
H    -3.1    0.4    3.6
N     0.1    0.2    3.1
C     1.3    0.5    2.3
C     2.4   -0.3    2.8
O     2.4   -0.9    3.9
H     0.3   -0.3    4.0
H     1.1    0.3    1.3
C     1.6    2.0    2.4
C     1.9    2.6    3.8
C     1.5    4.1    3.9
N     0.1    4.4    3.6
C    -0.9    4.0    4.3
N    -2.1    4.0    3.6
N    -0.9    3.7    5.6
H     0.8    2.6    1.9
H     2.5    2.2    1.7
H     2.9    2.4    4.1
H     1.2    2.0    4.5
H     2.1    4.7    3.2
H     1.8    4.5    4.9
H    -0.1    4.7    2.6
H    -2.9    3.7    4.3
H    -2.1    3.4    2.8
H     0.0    3.8    6.0
N     3.5   -0.4    2.0
C     4.7   -1.2    2.4
H     3.5    0.1    1.1
H     4.5   -1.6    3.3
H     5.6   -0.5    2.4
H     4.9   -2.0    1.6
