          35
 sphere cut out from bulk 
C     0.7    1.6    0.7
C     0.9    0.7    1.9
O     1.9    0.6    2.5
H    -0.2    1.7    0.2
H     1.5    1.3   -0.0
H     1.0    2.7    1.0
N    -0.2   -0.0    2.3
C    -1.7    0.2    2.1
C    -2.2    0.1    0.7
O    -3.2    0.6    0.3
H     0.0   -0.6    3.1
H    -2.1   -0.7    2.6
C    -2.3    1.4    2.9
C    -1.8    2.8    2.5
C    -2.9    3.8    2.7
N    -4.0    3.7    1.7
C    -3.8    4.1    0.4
N    -4.5    3.4   -0.5
N    -3.0    5.1    0.2
H    -2.2    1.2    4.0
H    -3.4    1.3    2.7
H    -1.5    2.8    1.5
H    -0.9    3.0    3.1
H    -2.5    4.8    2.6
H    -3.4    3.8    3.7
H    -4.6    2.9    1.8
H    -4.4    3.6   -1.5
H    -4.4    2.4   -0.4
H    -2.9    5.2   -0.8
N    -1.4   -0.8   -0.1
C    -1.7   -1.0   -1.5
H    -0.6   -1.1    0.3
H    -1.7   -2.1   -1.7
H    -1.0   -0.5   -2.2
H    -2.7   -0.6   -1.7
