          35
 sphere cut out from bulk 
C     0.1    0.1    1.4
C    -0.4    0.5    2.8
O     0.4    0.9    3.7
H     0.2    1.1    0.8
H    -0.5   -0.6    0.9
H     1.1   -0.3    1.5
N    -1.7    0.3    3.1
C    -2.8    0.1    2.2
C    -2.8   -1.3    1.5
O    -3.4   -1.5    0.4
H    -2.0    0.8    3.9
H    -3.7    0.1    2.8
C    -3.0    1.2    1.1
C    -3.0    2.6    1.8
C    -4.2    2.9    2.8
N    -3.8    3.8    3.8
C    -3.2    3.4    5.0
N    -3.0    4.5    5.9
N    -2.8    2.2    5.1
H    -4.0    1.0    0.6
H    -2.3    1.2    0.3
H    -2.1    2.8    2.3
H    -3.1    3.4    1.0
H    -4.5    1.9    3.3
H    -5.1    3.2    2.3
H    -4.5    4.6    3.9
H    -2.4    4.2    6.7
H    -2.8    5.4    5.5
H    -2.3    2.1    6.0
N    -2.2   -2.3    2.2
C    -2.1   -3.6    1.8
H    -1.8   -2.0    3.1
H    -2.6   -4.3    2.5
H    -1.1   -4.0    1.7
H    -2.7   -3.7    0.8
