          35
 sphere cut out from bulk 
C     0.4    0.1   -0.2
C     0.5    0.5    1.3
O     1.6    1.0    1.7
H    -0.4    0.8   -0.7
H     0.1   -0.9   -0.3
H     1.3    0.3   -0.7
N    -0.5    0.2    2.1
C    -1.9   -0.1    1.7
C    -2.7    1.1    1.2
O    -2.3    2.3    1.4
H    -0.4    0.7    3.0
H    -1.8   -0.8    0.9
C    -2.6   -0.8    2.9
C    -2.7   -0.1    4.2
C    -3.5    1.2    4.3
N    -4.8    1.1    3.5
C    -5.5    2.2    3.1
N    -4.8    3.3    2.8
N    -6.8    2.0    3.1
H    -2.0   -1.8    3.0
H    -3.6   -1.1    2.5
H    -1.7    0.0    4.7
H    -3.2   -0.9    4.9
H    -2.9    2.0    3.8
H    -3.6    1.5    5.3
H    -5.4    0.4    3.9
H    -5.3    4.0    2.4
H    -3.9    3.1    2.4
H    -7.2    2.8    2.7
N    -3.7    0.9    0.3
C    -4.4   -0.3    0.1
H    -4.2    1.8    0.1
H    -3.7   -1.2    0.0
H    -5.0   -0.3   -0.8
H    -5.2   -0.6    0.9
