          35
 sphere cut out from bulk 
C    -2.0    0.4   -0.9
C    -0.7    0.1   -0.2
O     0.3    0.8   -0.5
H    -2.4   -0.5   -1.5
H    -1.9    1.3   -1.5
H    -2.8    0.6   -0.1
N    -0.6   -0.9    0.7
C    -1.7   -1.8    1.1
C    -2.7   -1.2    2.1
O    -3.8   -1.7    2.3
H     0.3   -1.2    0.9
H    -2.3   -2.1    0.2
C    -1.2   -3.1    1.7
C    -0.6   -3.0    3.1
C     0.6   -3.9    3.4
N     1.8   -3.6    2.5
C     2.3   -2.4    2.5
N     2.8   -1.9    3.7
N     2.2   -1.7    1.3
H    -0.4   -3.5    1.0
H    -2.0   -3.8    1.7
H    -1.3   -3.1    3.9
H    -0.2   -1.9    3.2
H     0.3   -5.0    3.2
H     0.9   -3.8    4.4
H     1.6   -3.9    1.5
H     3.2   -2.6    4.3
H     3.3   -1.0    3.7
H     2.8   -0.8    1.4
N    -2.3   -0.0    2.6
C    -3.2    0.7    3.6
H    -1.4    0.3    2.4
H    -4.1    0.1    3.7
H    -3.4    1.7    3.3
H    -2.6    0.8    4.6
