          35
 sphere cut out from bulk 
C     0.1   -0.0    0.2
C    -0.0   -0.1    1.7
O     1.0   -0.1    2.4
H     1.1   -0.3   -0.1
H    -0.1    1.0   -0.1
H    -0.7   -0.6   -0.3
N    -1.2   -0.3    2.3
C    -2.6   -0.3    1.7
C    -2.9   -1.5    0.8
O    -3.7   -1.4   -0.2
H    -1.2   -0.2    3.3
H    -3.3   -0.4    2.5
C    -3.0    1.1    1.0
C    -4.3    1.7    1.5
C    -5.5    0.9    1.0
N    -6.8    1.6    1.3
C    -7.3    2.7    0.6
N    -8.4    3.3    1.2
N    -6.8    3.1   -0.5
H    -2.9    1.0   -0.1
H    -2.2    1.8    1.3
H    -4.4    2.7    1.1
H    -4.3    1.8    2.6
H    -5.6   -0.1    1.4
H    -5.5    0.8   -0.1
H    -7.0    1.6    2.3
H    -8.8    4.0    0.5
H    -9.1    2.6    1.5
H    -5.9    2.7   -0.8
N    -2.2   -2.6    1.1
C    -2.4   -3.8    0.3
H    -1.5   -2.5    1.8
H    -2.6   -4.7    1.0
H    -1.4   -4.1   -0.2
H    -3.1   -3.7   -0.4
