          35
 sphere cut out from bulk 
C     0.6   -0.1    0.3
C    -0.0   -1.0    1.4
O     0.6   -2.0    1.8
H     1.6    0.2    0.6
H    -0.0    0.7   -0.0
H     0.8   -0.8   -0.6
N    -1.2   -0.6    1.8
C    -2.1   -1.4    2.8
C    -3.5   -0.8    2.8
O    -4.5   -1.6    2.5
H    -1.7    0.1    1.3
H    -2.2   -2.4    2.4
C    -1.5   -1.4    4.2
C    -1.0   -2.8    4.5
C    -0.1   -2.9    5.8
N     1.0   -1.9    5.9
C     2.3   -2.1    5.4
N     2.3   -2.8    4.2
N     3.4   -1.7    5.9
H    -2.2   -1.1    4.9
H    -0.6   -0.7    4.3
H    -0.4   -3.2    3.7
H    -1.8   -3.5    4.7
H     0.3   -3.9    6.0
H    -0.7   -2.6    6.7
H     1.0   -1.3    6.7
H     3.2   -2.9    3.8
H     1.6   -2.6    3.5
H     3.2   -1.3    6.8
N    -3.7    0.5    3.0
C    -2.8    1.5    3.6
H    -4.7    0.8    3.0
H    -2.9    1.5    4.8
H    -3.0    2.5    3.3
H    -1.8    1.3    3.4
