          35
 sphere cut out from bulk 
C     0.1   -2.9   -0.4
C    -0.1   -2.1    0.9
O     0.6   -1.3    1.4
H     1.1   -3.4   -0.3
H     0.2   -2.2   -1.2
H    -0.6   -3.6   -0.6
N    -1.3   -2.5    1.6
C    -1.8   -1.7    2.7
C    -1.1   -2.2    4.0
O    -1.8   -2.6    5.0
H    -1.9   -3.2    1.2
H    -1.5   -0.7    2.6
C    -3.3   -1.9    2.8
C    -3.9   -3.3    2.7
C    -5.2   -3.5    3.6
N    -4.9   -3.3    5.0
C    -5.2   -2.1    5.7
N    -4.3   -1.8    6.7
N    -6.2   -1.3    5.5
H    -3.8   -1.2    2.0
H    -3.7   -1.4    3.7
H    -3.2   -4.0    3.1
H    -4.2   -3.6    1.7
H    -5.6   -4.5    3.4
H    -5.9   -2.7    3.3
H    -4.0   -3.6    5.3
H    -4.5   -0.9    7.1
H    -3.3   -1.9    6.4
H    -6.9   -1.7    4.8
N     0.2   -2.0    4.1
C     1.0   -2.4    5.2
H     0.6   -1.6    3.2
H     0.8   -1.7    6.1
H     2.1   -2.3    5.0
H     0.8   -3.4    5.5
