          35
 sphere cut out from bulk 
C     0.3   -0.6    1.7
C    -0.9   -1.0    2.6
O    -0.9   -2.1    3.2
H     1.1   -1.2    2.0
H     0.6    0.5    1.8
H     0.0   -0.8    0.7
N    -1.9   -0.1    2.8
C    -2.1    1.2    2.2
C    -2.6    2.2    3.3
O    -3.8    2.4    3.5
H    -2.7   -0.5    3.4
H    -1.2    1.6    1.8
C    -3.2    1.2    1.0
C    -2.8    0.3   -0.1
C    -1.7    0.8   -1.0
N    -1.2   -0.2   -1.9
C    -0.0    0.1   -2.7
N     0.3   -1.0   -3.5
N     0.7    1.1   -2.7
H    -3.4    2.2    0.7
H    -4.2    0.8    1.5
H    -3.7    0.1   -0.7
H    -2.5   -0.7    0.2
H    -0.9    1.2   -0.4
H    -2.1    1.7   -1.6
H    -1.8   -0.8   -2.3
H     1.2   -0.8   -4.0
H     0.2   -1.9   -3.1
H     0.3    1.9   -2.1
N    -1.6    2.8    4.0
C    -0.2    2.5    4.0
H    -2.0    3.3    4.8
H     0.3    3.2    4.7
H     0.2    2.8    3.0
H     0.1    1.5    4.2
