          35
 sphere cut out from bulk 
C    -0.4    0.7    0.9
C    -0.1   -0.8    0.5
O     0.9   -1.1   -0.1
H    -0.5    0.7    2.0
H    -1.4    1.0    0.5
H     0.4    1.3    0.6
N    -1.1   -1.7    0.9
C    -2.4   -1.5    1.4
C    -2.4   -1.4    3.0
O    -3.4   -1.0    3.6
H    -0.9   -2.6    0.4
H    -2.8   -0.5    1.1
C    -3.3   -2.6    0.9
C    -4.8   -2.4    1.2
C    -5.5   -1.1    0.6
N    -5.4   -1.0   -0.8
C    -4.5   -0.3   -1.6
N    -4.7   -0.5   -2.9
N    -3.6    0.4   -1.0
H    -3.0   -3.6    1.2
H    -3.2   -2.6   -0.2
H    -5.0   -2.3    2.3
H    -5.4   -3.2    0.8
H    -4.9   -0.2    1.0
H    -6.5   -1.0    1.0
H    -5.9   -1.8   -1.3
H    -4.1    0.2   -3.5
H    -5.6   -0.5   -3.3
H    -3.0    0.9   -1.6
N    -1.3   -1.9    3.6
C    -1.1   -1.9    5.0
H    -0.5   -2.2    3.0
H    -2.0   -1.5    5.5
H    -0.3   -1.3    5.3
H    -0.9   -2.9    5.4
