          35
 sphere cut out from bulk 
C    -0.2    0.2   -0.3
C     0.1   -0.1    1.1
O     1.2   -0.4    1.5
H     0.7    0.2   -0.9
H    -0.8    1.1   -0.4
H    -0.8   -0.7   -0.8
N    -0.9   -0.1    2.1
C    -2.4   -0.0    2.0
C    -2.9   -1.5    1.7
O    -3.0   -2.2    2.7
H    -0.5   -0.5    3.0
H    -2.6    0.1    3.1
C    -2.9    1.2    1.3
C    -4.3    1.6    1.8
C    -5.4    0.7    1.3
N    -6.8    1.2    1.6
C    -7.9    0.7    0.9
N    -9.1    1.2    1.4
N    -7.7    0.0   -0.1
H    -2.9    1.2    0.2
H    -2.2    2.0    1.6
H    -4.5    2.6    1.4
H    -4.3    1.7    2.9
H    -5.3   -0.3    1.6
H    -5.4    0.7    0.2
H    -6.9    1.3    2.6
H    -9.9    0.6    1.3
H    -9.1    1.6    2.4
H    -8.6   -0.1   -0.6
N    -3.2   -1.9    0.5
C    -3.5   -1.3   -0.8
H    -3.5   -2.9    0.6
H    -3.1   -2.0   -1.6
H    -3.0   -0.4   -0.9
H    -4.6   -1.2   -0.9
