          35
 sphere cut out from bulk 
C     0.2   -0.0    0.2
C     0.0    0.4    1.6
O     1.0    0.8    2.3
H     1.3    0.1   -0.0
H    -0.3    0.6   -0.5
H    -0.1   -1.1    0.0
N    -1.3    0.4    2.1
C    -2.5    0.1    1.4
C    -3.5    1.2    1.8
O    -3.4    1.8    2.9
H    -1.4    0.8    3.0
H    -2.3    0.1    0.3
C    -3.1   -1.2    1.8
C    -2.3   -2.5    1.5
C    -3.0   -3.8    1.7
N    -4.1   -4.1    0.8
C    -5.4   -3.8    1.1
N    -6.2   -4.0   -0.0
N    -5.9   -3.3    2.2
H    -4.1   -1.3    1.3
H    -3.3   -1.2    2.9
H    -1.3   -2.4    2.0
H    -2.0   -2.4    0.4
H    -3.3   -3.9    2.7
H    -2.2   -4.6    1.6
H    -3.8   -4.1   -0.2
H    -7.2   -3.9    0.2
H    -6.0   -4.8   -0.5
H    -5.2   -3.1    2.9
N    -4.5    1.5    0.9
C    -4.9    0.8   -0.3
H    -5.2    2.1    1.3
H    -4.0    0.5   -0.9
H    -5.5    1.4   -0.9
H    -5.5   -0.2   -0.1
