          35
 sphere cut out from bulk 
C    -0.5    0.5   -0.5
C    -0.2    0.3    1.0
O     1.0    0.3    1.4
H    -1.1   -0.2   -0.9
H     0.5    0.6   -0.9
H    -1.0    1.5   -0.6
N    -1.2    0.2    1.9
C    -2.7    0.1    1.9
C    -3.2   -1.2    2.5
O    -4.0   -1.2    3.4
H    -0.8    0.1    2.9
H    -3.1    0.8    2.6
C    -3.4    0.3    0.5
C    -4.9    0.5    0.7
C    -5.5    0.7   -0.7
N    -5.0    1.8   -1.5
C    -3.9    1.8   -2.3
N    -3.7    0.6   -3.0
N    -3.1    2.8   -2.2
H    -2.9    1.2    0.1
H    -3.1   -0.5   -0.2
H    -5.3   -0.4    1.1
H    -5.1    1.3    1.3
H    -6.6    0.8   -0.6
H    -5.4   -0.2   -1.3
H    -5.1    2.7   -1.0
H    -4.6    0.2   -3.4
H    -3.0    0.6   -3.7
H    -2.4    2.7   -3.0
N    -2.7   -2.5    2.1
C    -1.6   -2.8    1.1
H    -3.1   -3.2    2.6
H    -0.6   -2.5    1.5
H    -1.7   -3.8    0.9
H    -1.8   -2.2    0.2
