          35
 sphere cut out from bulk 
C    -0.1   -0.9   -0.0
C    -0.0   -0.2    1.3
O     1.1    0.1    1.8
H    -0.4   -1.9    0.1
H     0.8   -0.8   -0.5
H    -0.9   -0.4   -0.6
N    -1.2    0.0    2.0
C    -2.5   -0.3    1.7
C    -3.4    0.7    2.5
O    -3.1    1.1    3.6
H    -1.1    0.5    3.0
H    -2.7   -0.1    0.6
C    -3.0   -1.8    1.9
C    -2.6   -2.3    3.4
C    -1.4   -3.1    3.4
N    -1.5   -4.5    3.0
C    -1.2   -5.0    1.7
N    -1.4   -6.3    1.6
N    -0.8   -4.2    0.8
H    -2.5   -2.4    1.2
H    -4.0   -1.8    1.7
H    -3.5   -2.9    3.7
H    -2.5   -1.4    4.0
H    -1.0   -3.2    4.5
H    -0.5   -2.7    2.9
H    -2.2   -5.1    3.5
H    -1.1   -6.7    0.7
H    -1.1   -6.9    2.4
H    -0.5   -4.7   -0.0
N    -4.6    0.9    2.0
C    -5.6    1.8    2.6
H    -4.8    0.6    1.1
H    -5.9    2.6    2.0
H    -5.2    2.1    3.6
H    -6.5    1.1    2.9
