          35
 sphere cut out from bulk 
C    -2.7   -0.5    1.2
C    -2.0    0.3    2.3
O    -1.9    1.5    2.3
H    -2.4   -0.1    0.2
H    -3.8   -0.4    1.3
H    -2.5   -1.6    1.2
N    -1.5   -0.5    3.3
C    -0.6    0.1    4.3
C     0.6   -0.9    4.4
O     0.5   -2.1    4.0
H    -1.3   -1.5    3.1
H    -0.2    1.0    3.9
C    -1.2    0.3    5.7
C    -2.2    1.5    5.7
C    -3.7    1.0    5.3
N    -4.3    0.1    6.3
C    -4.6   -1.2    6.0
N    -3.9   -1.9    5.1
N    -5.5   -1.9    6.7
H    -0.4    0.6    6.3
H    -1.6   -0.6    6.0
H    -1.9    2.3    5.0
H    -2.3    1.9    6.7
H    -3.7    0.6    4.3
H    -4.3    1.9    5.2
H    -4.8    0.5    7.0
H    -4.3   -2.7    4.8
H    -3.4   -1.3    4.4
H    -6.0   -1.3    7.4
N     1.7   -0.5    5.0
C     2.9   -1.3    5.2
H     1.8    0.5    5.3
H     3.8   -0.8    4.7
H     2.7   -2.3    4.8
H     3.1   -1.4    6.3
