          35
 sphere cut out from bulk 
C    -0.1   -4.2    0.2
C    -0.7   -2.9    0.7
O    -0.9   -2.0   -0.1
H     0.1   -4.9    1.1
H     0.9   -4.0   -0.2
H    -0.7   -4.6   -0.5
N    -1.0   -2.8    2.0
C    -1.5   -1.6    2.6
C    -1.2   -1.7    4.1
O    -0.6   -2.7    4.6
H    -0.7   -3.5    2.7
H    -0.8   -0.8    2.3
C    -2.9   -1.2    2.2
C    -4.0   -2.2    2.2
C    -4.6   -2.6    3.6
N    -3.7   -3.3    4.4
C    -3.7   -3.4    5.8
N    -2.6   -4.1    6.3
N    -4.5   -2.8    6.6
H    -2.8   -0.9    1.1
H    -3.2   -0.3    2.8
H    -3.7   -3.2    1.8
H    -4.9   -1.9    1.6
H    -5.6   -3.1    3.5
H    -4.8   -1.6    4.2
H    -3.2   -4.1    4.0
H    -2.6   -4.1    7.3
H    -1.7   -3.9    5.9
H    -5.3   -2.4    6.1
N    -1.6   -0.7    4.9
C    -1.5   -0.7    6.4
H    -2.2   -0.0    4.5
H    -0.7   -1.4    6.6
H    -2.4   -1.0    6.9
H    -1.2    0.3    6.7
