          35
 sphere cut out from bulk 
C    -1.1    1.0    0.0
C    -1.1    0.5    1.4
O    -0.9   -0.7    1.7
H    -0.2    0.7   -0.5
H    -1.2    2.1    0.0
H    -1.9    0.6   -0.5
N    -1.5    1.4    2.4
C    -1.4    1.0    3.8
C    -2.8    1.3    4.6
O    -2.8    1.3    5.8
H    -1.5    2.4    2.1
H    -1.3   -0.1    3.9
C    -0.3    1.7    4.6
C    -0.2    3.2    4.5
C     0.6    3.7    3.3
N     0.2    5.1    2.9
C    -0.9    5.3    2.1
N    -1.2    6.6    1.9
N    -1.6    4.3    1.7
H     0.7    1.2    4.2
H    -0.4    1.4    5.7
H     0.2    3.6    5.4
H    -1.3    3.6    4.4
H     0.5    3.1    2.5
H     1.7    3.7    3.6
H     0.5    5.8    3.5
H    -1.9    6.8    1.2
H    -0.4    7.2    1.8
H    -2.3    4.6    1.1
N    -3.9    1.4    3.7
C    -5.2    1.6    4.2
H    -3.7    1.3    2.8
H    -5.7    2.5    3.9
H    -5.1    1.6    5.3
H    -5.8    0.7    4.0
