          35
 sphere cut out from bulk 
C     0.6    0.6    0.3
C     0.2   -0.1    1.6
O     0.9   -1.1    2.0
H     0.8   -0.2   -0.5
H     1.5    1.2    0.5
H    -0.2    1.2   -0.1
N    -0.9    0.4    2.2
C    -1.4   -0.2    3.5
C    -2.3   -1.5    3.1
O    -3.5   -1.5    3.1
H    -1.6    0.9    1.7
H    -0.5   -0.6    4.0
C    -2.1    0.7    4.4
C    -2.8    2.0    3.8
C    -3.9    1.8    2.7
N    -3.3    1.7    1.4
C    -3.9    1.0    0.3
N    -4.6   -0.2    0.7
N    -3.9    1.3   -0.9
H    -1.4    1.1    5.1
H    -2.9    0.2    4.9
H    -2.0    2.7    3.4
H    -3.3    2.5    4.6
H    -4.6    2.6    2.8
H    -4.5    0.9    2.9
H    -3.0    2.6    1.0
H    -4.3   -0.7    1.5
H    -4.9   -0.8   -0.1
H    -3.4    2.2   -1.1
N    -1.5   -2.5    2.7
C    -2.1   -3.8    2.2
H    -0.5   -2.4    2.6
H    -1.6   -4.6    2.5
H    -2.1   -3.8    1.1
H    -3.2   -3.8    2.5
