          35
 sphere cut out from bulk 
C    -0.3    0.2   -0.2
C    -0.3   -0.0    1.3
O     0.7   -0.5    1.9
H     0.4    1.0   -0.4
H    -1.3    0.4   -0.6
H     0.1   -0.7   -0.7
N    -1.5    0.3    1.9
C    -1.8    0.0    3.3
C    -3.1   -0.7    3.4
O    -4.0   -0.5    2.6
H    -2.4    0.4    1.4
H    -0.9   -0.6    3.6
C    -1.8    1.3    4.2
C    -0.5    2.1    4.1
C    -0.5    3.4    5.0
N    -1.4    4.4    4.5
C    -1.2    5.2    3.4
N    -2.3    6.0    3.1
N    -0.1    5.1    2.8
H    -2.0    1.1    5.2
H    -2.6    1.9    3.8
H    -0.2    2.4    3.1
H     0.4    1.4    4.5
H     0.5    3.8    4.9
H    -0.7    3.1    6.0
H    -2.4    4.2    4.7
H    -2.1    6.7    2.4
H    -2.8    6.4    4.0
H    -0.0    5.9    2.1
N    -3.3   -1.5    4.5
C    -2.3   -1.9    5.5
H    -4.2   -1.9    4.6
H    -2.7   -2.7    6.1
H    -1.9   -1.1    6.1
H    -1.4   -2.4    5.0
