          35
 sphere cut out from bulk 
C     0.1   -2.2    0.9
C    -0.1   -0.7    1.2
O     0.9    0.0    1.4
H     0.4   -2.3   -0.2
H    -0.8   -2.8    1.1
H     1.0   -2.5    1.5
N    -1.3   -0.2    1.3
C    -2.6   -0.7    0.7
C    -3.3   -1.7    1.7
O    -3.1   -2.9    1.6
H    -1.3    0.8    1.5
H    -3.2    0.3    0.8
C    -2.6   -1.2   -0.7
C    -1.8   -0.5   -1.8
C    -2.0    1.1   -1.9
N    -1.1    1.9   -1.2
C    -1.4    2.5    0.0
N    -0.2    2.9    0.7
N    -2.5    2.8    0.5
H    -3.6   -1.2   -1.0
H    -2.3   -2.2   -0.7
H    -1.9   -0.9   -2.7
H    -0.7   -0.6   -1.6
H    -3.0    1.3   -1.7
H    -1.9    1.3   -3.0
H    -0.1    1.9   -1.4
H    -0.5    3.4    1.6
H     0.4    2.1    0.9
H    -3.3    2.6   -0.2
N    -4.0   -1.1    2.7
C    -4.6   -1.9    3.8
H    -4.0   -0.1    2.7
H    -4.5   -2.9    3.5
H    -5.7   -1.6    3.9
H    -4.1   -1.7    4.7
