          35
 sphere cut out from bulk 
C    -1.3   -2.1    0.8
C    -1.1   -0.8    1.6
O    -0.9    0.2    1.0
H    -0.5   -2.2    0.1
H    -2.2   -2.1    0.2
H    -1.3   -3.0    1.5
N    -1.1   -0.9    3.0
C    -1.0    0.2    3.8
C     0.1    0.1    4.9
O     0.0    0.8    5.9
H    -1.3   -1.8    3.4
H    -0.7    1.1    3.1
C    -2.4    0.7    4.4
C    -3.0   -0.2    5.5
C    -3.4   -1.7    5.0
N    -4.3   -1.8    3.8
C    -5.6   -1.2    3.8
N    -6.3   -1.5    5.0
N    -6.1   -0.6    2.8
H    -3.1    0.8    3.6
H    -2.2    1.6    4.9
H    -3.9    0.3    5.8
H    -2.4   -0.3    6.3
H    -4.0   -2.1    5.9
H    -2.5   -2.3    4.9
H    -3.8   -1.5    3.0
H    -6.2   -2.4    5.4
H    -7.3   -1.2    4.8
H    -5.5   -0.4    2.1
N     1.1   -0.7    4.6
C     2.3   -0.8    5.4
H     1.1   -1.2    3.7
H     2.0   -0.3    6.4
H     3.1   -0.3    5.0
H     2.5   -1.9    5.6
