          35
 sphere cut out from bulk 
C    -0.2   -0.5   -0.1
C    -0.2   -0.6    1.4
O     0.8   -0.7    2.0
H    -0.9    0.3   -0.5
H    -0.5   -1.4   -0.6
H     0.8   -0.2   -0.4
N    -1.5   -0.5    2.0
C    -2.8   -0.3    1.5
C    -3.2   -1.3    0.3
O    -3.5   -0.8   -0.8
H    -1.4   -0.6    3.0
H    -3.5   -0.7    2.3
C    -3.1    1.1    1.2
C    -4.6    1.5    1.1
C    -5.4    1.4    2.5
N    -6.8    1.8    2.3
C    -7.7    1.6    3.3
N    -7.2    1.7    4.6
N    -9.0    1.3    3.1
H    -2.7    1.4    0.3
H    -2.7    1.8    2.0
H    -5.1    0.8    0.4
H    -4.8    2.5    0.7
H    -4.9    2.1    3.1
H    -5.3    0.4    2.9
H    -7.1    1.5    1.3
H    -6.5    2.4    4.7
H    -8.0    1.7    5.2
H    -9.2    1.1    2.1
N    -3.1   -2.6    0.5
C    -2.8   -3.3    1.8
H    -3.3   -3.1   -0.3
H    -3.1   -4.3    1.7
H    -3.2   -2.9    2.6
H    -1.7   -3.3    1.9
