          35
 sphere cut out from bulk 
C     1.6   -0.4   -0.2
C     0.9    0.5    0.8
O     0.4    1.6    0.4
H     2.4    0.1   -0.7
H     0.9   -0.7   -1.0
H     2.0   -1.3    0.2
N     0.9    0.1    2.0
C     0.2    0.8    3.1
C     1.1    1.9    3.7
O     1.7    1.8    4.8
H     1.4   -0.8    2.3
H    -0.6    1.4    2.5
C    -0.6   -0.1    4.1
C     0.1   -0.8    5.2
C     1.3   -1.7    4.9
N     2.5   -0.9    4.7
C     3.4   -1.1    3.6
N     4.5   -0.3    3.6
N     3.1   -2.0    2.7
H    -1.1   -0.8    3.5
H    -1.4    0.6    4.5
H    -0.6   -1.4    5.7
H     0.4   -0.1    6.0
H     1.2   -2.3    4.0
H     1.5   -2.4    5.8
H     2.5    0.1    5.0
H     4.8   -0.0    2.7
H     4.5    0.5    4.3
H     3.8   -2.1    2.0
N     1.2    3.0    2.8
C     2.1    4.1    3.1
H     0.8    2.8    1.9
H     1.7    5.0    2.7
H     3.1    3.9    2.6
H     2.3    4.1    4.2
