          35
 sphere cut out from bulk 
C     0.3    1.4    0.5
C    -0.0    0.1    1.4
O     0.7   -0.8    1.4
H     1.1    1.2   -0.1
H     0.5    2.3    1.1
H    -0.6    1.6   -0.1
N    -1.1    0.2    2.2
C    -2.1    1.2    2.3
C    -2.5    1.4    3.8
O    -3.5    1.0    4.3
H    -1.3   -0.7    2.7
H    -1.7    2.2    1.9
C    -3.4    0.9    1.4
C    -4.6    1.8    1.5
C    -4.2    3.3    1.5
N    -5.4    4.2    1.8
C    -5.8    4.5    3.1
N    -5.1    4.0    4.2
N    -6.8    5.3    3.4
H    -3.7   -0.1    1.7
H    -3.0    0.9    0.4
H    -5.1    1.6    2.5
H    -5.3    1.6    0.7
H    -3.8    3.6    0.6
H    -3.5    3.5    2.3
H    -6.0    4.4    1.1
H    -5.5    4.2    5.0
H    -4.8    3.0    4.1
H    -7.2    5.7    2.5
N    -1.6    2.2    4.5
C    -0.4    2.8    4.1
H    -1.9    2.3    5.5
H     0.0    3.3    5.0
H    -0.6    3.5    3.3
H     0.3    2.0    3.8
