          35
 sphere cut out from bulk 
C    -0.2    0.4    0.3
C    -0.3   -0.1    1.7
O     0.7   -0.3    2.4
H     0.8    0.4   -0.0
H    -0.7    1.4    0.2
H    -0.8   -0.3   -0.4
N    -1.5   -0.3    2.3
C    -2.8   -0.2    1.6
C    -3.8    0.5    2.6
O    -4.9   -0.1    3.0
H    -1.5   -0.7    3.2
H    -2.8    0.5    0.8
C    -3.4   -1.5    1.1
C    -3.4   -2.7    2.1
C    -4.5   -3.6    1.9
N    -5.8   -2.9    2.3
C    -7.0   -3.2    1.7
N    -8.0   -2.3    1.9
N    -7.1   -4.3    0.9
H    -2.8   -1.8    0.2
H    -4.4   -1.4    0.7
H    -3.4   -2.3    3.1
H    -2.4   -3.3    2.0
H    -4.4   -4.5    2.6
H    -4.6   -4.0    0.9
H    -5.6   -2.0    2.6
H    -7.9   -1.8    2.8
H    -8.9   -2.6    1.8
H    -8.0   -4.4    0.6
N    -3.6    1.7    3.1
C    -2.5    2.6    2.7
H    -4.2    2.1    3.7
H    -2.7    3.6    3.0
H    -2.3    2.6    1.6
H    -1.5    2.3    3.2
