          35
 sphere cut out from bulk 
C    -0.8   -1.9    0.5
C    -0.8   -0.8    1.6
O    -0.1    0.2    1.4
H    -1.2   -1.4   -0.4
H    -1.5   -2.7    0.7
H     0.2   -2.2    0.3
N    -1.5   -1.1    2.7
C    -1.6   -0.4    4.0
C    -3.0    0.3    4.2
O    -3.6    0.0    5.3
H    -2.0   -2.0    2.7
H    -1.7   -1.2    4.8
C    -0.5    0.5    4.4
C     0.9   -0.2    4.6
C     0.9   -1.2    5.7
N     0.6   -0.7    7.1
C     1.3    0.3    7.7
N     2.7    0.2    7.5
N     0.7    1.3    8.3
H    -0.8    1.0    5.3
H    -0.3    1.3    3.6
H     1.6    0.6    4.8
H     1.2   -0.7    3.7
H     1.9   -1.6    5.8
H     0.2   -2.0    5.5
H    -0.4   -0.5    7.2
H     3.0   -0.8    7.5
H     3.2    0.8    8.1
H     1.3    1.9    8.8
N    -3.5    1.2    3.3
C    -3.0    1.6    2.1
H    -4.4    1.5    3.6
H    -1.9    1.6    2.0
H    -3.2    2.7    1.9
H    -3.4    1.1    1.2
