          35
 sphere cut out from bulk 
C     0.9   -1.8    1.5
C     0.2   -0.5    1.9
O     0.8    0.6    1.9
H     1.2   -2.3    2.4
H     1.7   -1.5    0.9
H     0.2   -2.5    0.9
N    -1.1   -0.6    2.4
C    -2.0   -1.7    2.5
C    -1.4   -3.0    3.2
O    -1.4   -4.0    2.6
H    -1.5    0.3    2.7
H    -2.8   -1.4    3.1
C    -2.7   -2.1    1.1
C    -3.4   -0.9    0.5
C    -4.1   -1.3   -0.8
N    -4.7   -0.2   -1.4
C    -5.5   -0.3   -2.6
N    -6.0    0.9   -3.1
N    -5.8   -1.4   -3.2
H    -3.4   -2.9    1.3
H    -1.9   -2.5    0.5
H    -2.7   -0.1    0.3
H    -4.2   -0.5    1.1
H    -4.8   -2.1   -0.7
H    -3.3   -1.8   -1.5
H    -4.2    0.7   -1.4
H    -6.6    0.8   -3.9
H    -6.3    1.6   -2.4
H    -5.4   -2.2   -2.8
N    -0.9   -2.8    4.4
C    -0.9   -1.6    5.3
H    -0.5   -3.6    4.8
H    -0.8   -1.9    6.3
H    -1.9   -1.1    5.2
H    -0.1   -0.9    5.0
