          35
 sphere cut out from bulk 
C    -0.6    0.4   -0.7
C    -0.3   -0.2    0.6
O     0.8   -0.6    0.9
H    -1.4   -0.1   -1.2
H     0.3    0.4   -1.4
H    -0.9    1.4   -0.6
N    -1.3   -0.2    1.6
C    -2.7    0.0    1.3
C    -3.1    1.5    1.4
O    -4.1    2.0    0.8
H    -1.1   -0.7    2.4
H    -3.0   -0.3    0.3
C    -3.5   -0.8    2.4
C    -5.1   -0.6    2.4
C    -5.8   -1.2    1.1
N    -5.5   -0.5   -0.1
C    -4.8   -1.1   -1.1
N    -4.3   -0.2   -2.1
N    -4.7   -2.4   -1.1
H    -3.1   -0.5    3.4
H    -3.3   -1.8    2.2
H    -5.3    0.5    2.5
H    -5.4   -1.1    3.2
H    -6.9   -1.1    1.3
H    -5.6   -2.2    1.0
H    -5.2    0.5    0.0
H    -4.2   -0.6   -3.0
H    -4.8    0.7   -2.1
H    -4.2   -2.7   -2.0
N    -2.2    2.3    2.0
C    -2.4    3.8    2.2
H    -1.4    1.9    2.4
H    -2.4    4.0    3.2
H    -3.4    4.0    1.7
H    -1.6    4.3    1.6
