          35
 sphere cut out from bulk 
C    -0.9   -0.5    0.9
C    -1.3   -0.3    2.3
O    -0.8   -1.1    3.2
H     0.0    0.1    0.7
H    -1.7   -0.1    0.2
H    -0.7   -1.6    0.7
N    -2.3    0.6    2.7
C    -3.1    1.6    1.9
C    -3.7    1.0    0.6
O    -3.5    1.6   -0.5
H    -2.4    0.6    3.7
H    -4.0    1.8    2.6
C    -2.4    3.0    1.8
C    -0.9    3.0    1.4
C    -0.6    2.9   -0.1
N     0.8    2.6   -0.4
C     1.3    2.5   -1.7
N     0.4    2.1   -2.6
N     2.5    2.6   -2.0
H    -2.4    3.4    2.8
H    -3.0    3.6    1.1
H    -0.3    2.1    1.9
H    -0.4    3.9    1.8
H    -1.3    2.1   -0.6
H    -1.0    3.8   -0.6
H     1.4    3.1    0.3
H    -0.4    1.6   -2.4
H     0.8    1.8   -3.5
H     3.1    3.0   -1.2
N    -4.5   -0.1    0.7
C    -4.8   -0.9    1.9
H    -4.8   -0.4   -0.2
H    -5.7   -1.4    1.7
H    -5.1   -0.2    2.8
H    -4.1   -1.6    2.2
