          35
 sphere cut out from bulk 
C     0.7    0.9    0.8
C    -0.1   -0.3    1.1
O     0.4   -1.4    1.1
H     1.2    0.8   -0.2
H     1.4    1.2    1.5
H    -0.0    1.8    0.7
N    -1.4   -0.1    1.6
C    -2.1   -1.2    2.2
C    -2.5   -2.3    1.2
O    -2.7   -3.5    1.6
H    -1.7    0.8    1.8
H    -1.5   -1.7    2.9
C    -3.4   -0.6    3.0
C    -4.5   -1.5    3.5
C    -4.0   -2.7    4.4
N    -2.9   -2.4    5.3
C    -1.8   -3.1    5.4
N    -1.5   -4.0    4.5
N    -0.9   -3.0    6.4
H    -3.8    0.1    2.3
H    -2.9   -0.0    3.8
H    -5.0   -2.0    2.6
H    -5.2   -0.9    4.0
H    -3.7   -3.5    3.8
H    -4.9   -3.0    5.0
H    -3.2   -1.8    6.1
H    -0.6   -4.4    4.5
H    -1.8   -3.9    3.5
H    -1.3   -2.3    7.1
N    -2.8   -1.9   -0.1
C    -3.1   -2.9   -1.1
H    -2.5   -1.0   -0.3
H    -2.2   -3.0   -1.8
H    -3.9   -2.5   -1.7
H    -3.4   -3.8   -0.7
