          35
 sphere cut out from bulk 
C    -0.0   -0.1    0.0
C     0.1    0.1    1.5
O     1.1    0.2    2.1
H     1.0   -0.0   -0.4
H    -0.6    0.8   -0.4
H    -0.5   -1.0   -0.3
N    -1.1    0.0    2.2
C    -2.5   -0.0    1.7
C    -3.3    1.1    2.4
O    -3.0    1.4    3.6
H    -1.0    0.3    3.2
H    -2.4    0.1    0.7
C    -3.1   -1.4    2.0
C    -2.5   -2.6    1.3
C    -3.1   -3.9    1.7
N    -2.5   -5.1    1.0
C    -3.0   -5.3   -0.3
N    -2.2   -6.3   -0.9
N    -3.9   -4.8   -1.0
H    -4.2   -1.4    1.7
H    -3.1   -1.6    3.1
H    -1.4   -2.6    1.5
H    -2.5   -2.4    0.2
H    -4.2   -3.9    1.6
H    -2.9   -4.1    2.8
H    -1.6   -5.3    1.2
H    -2.6   -6.6   -1.8
H    -2.0   -7.1   -0.3
H    -4.3   -4.0   -0.5
N    -4.3    1.6    1.7
C    -4.7    1.4    0.3
H    -4.8    2.3    2.3
H    -3.9    1.7   -0.3
H    -5.6    2.0    0.1
H    -5.0    0.3    0.2
