          35
 sphere cut out from bulk 
C     0.2   -0.8    0.4
C    -0.8   -0.0    1.3
O    -1.4    1.0    0.9
H     0.6   -1.7    0.9
H     1.0   -0.1    0.2
H    -0.3   -1.0   -0.5
N    -1.0   -0.6    2.5
C    -1.8   -0.1    3.7
C    -3.0   -1.0    4.0
O    -3.2   -1.5    5.1
H    -0.5   -1.4    2.7
H    -1.2   -0.3    4.6
C    -2.1    1.4    3.7
C    -2.7    1.9    5.0
C    -2.9    3.4    4.9
N    -1.7    4.2    4.8
C    -1.4    5.0    3.7
N    -2.0    4.6    2.5
N    -0.7    6.1    3.7
H    -2.8    1.6    2.9
H    -1.2    1.9    3.5
H    -2.0    1.6    5.8
H    -3.6    1.4    5.2
H    -3.4    3.7    5.9
H    -3.6    3.7    4.1
H    -1.3    4.5    5.6
H    -1.7    5.2    1.7
H    -1.9    3.6    2.2
H    -0.5    6.3    4.7
N    -4.0   -1.2    3.0
C    -4.0   -0.8    1.6
H    -4.8   -1.8    3.3
H    -5.0   -0.6    1.3
H    -3.6   -1.6    0.9
H    -3.4    0.1    1.4
