          35
 sphere cut out from bulk 
C     0.2   -0.3   -0.1
C    -0.3   -0.7    1.2
O    -0.3   -1.9    1.6
H     1.3   -0.6   -0.2
H     0.1    0.8   -0.4
H    -0.3   -0.9   -0.9
N    -0.8    0.3    2.0
C    -1.2    0.1    3.4
C    -2.7   -0.6    3.5
O    -2.9   -1.2    4.5
H    -0.8    1.2    1.6
H    -0.6   -0.7    3.8
C    -1.2    1.4    4.2
C     0.2    1.9    4.4
C     0.3    3.1    5.3
N     1.7    3.6    5.5
C     2.0    4.8    5.9
N     1.0    5.8    6.0
N     3.3    5.2    6.1
H    -1.7    1.2    5.1
H    -1.8    2.2    3.7
H     0.8    2.1    3.5
H     0.8    1.1    4.9
H    -0.2    2.9    6.2
H    -0.3    3.9    4.8
H     2.4    2.8    5.6
H     0.2    5.4    6.5
H     1.4    6.6    6.4
H     3.9    4.5    5.9
N    -3.6   -0.3    2.6
C    -3.7    0.5    1.4
H    -4.5   -0.8    2.8
H    -3.3    1.5    1.6
H    -4.7    0.6    1.1
H    -3.1    0.0    0.6
