          35
 sphere cut out from bulk 
C    -0.9    0.5    0.3
C    -0.2    0.5    1.7
O     0.8    1.2    1.9
H    -0.6   -0.4   -0.3
H    -0.6    1.4   -0.2
H    -2.0    0.4    0.4
N    -0.7   -0.4    2.7
C    -1.9   -1.2    2.7
C    -2.2   -1.7    4.1
O    -3.3   -1.9    4.5
H    -0.2   -0.2    3.6
H    -2.8   -0.5    2.5
C    -2.0   -2.3    1.7
C    -1.1   -3.5    1.9
C     0.4   -3.2    1.6
N     1.2   -4.4    1.7
C     2.6   -4.4    1.8
N     3.2   -5.7    1.8
N     3.4   -3.4    1.9
H    -1.9   -1.9    0.7
H    -3.0   -2.7    1.8
H    -1.4   -4.3    1.2
H    -1.2   -4.0    2.9
H     0.8   -2.5    2.4
H     0.6   -2.7    0.6
H     0.8   -5.2    1.2
H     4.2   -5.6    1.9
H     2.7   -6.3    2.4
H     2.9   -2.5    1.7
N    -1.1   -2.0    4.9
C    -1.2   -2.6    6.2
H    -0.2   -2.0    4.4
H    -0.3   -2.3    6.8
H    -1.2   -3.7    6.1
H    -2.1   -2.3    6.7
