          35
 sphere cut out from bulk 
C    -0.4   -0.9    0.5
C    -0.3    0.1    1.6
O     0.6    0.9    1.7
H     0.5   -1.6    0.6
H    -0.3   -0.4   -0.5
H    -1.3   -1.5    0.5
N    -1.3   -0.1    2.6
C    -1.5    0.5    3.9
C    -2.6    1.6    4.0
O    -3.4    1.6    4.9
H    -2.0   -0.8    2.4
H    -1.9   -0.3    4.5
C    -0.2    1.0    4.6
C    -0.3    1.5    6.0
C    -0.7    0.4    7.1
N    -2.0   -0.1    7.0
C    -2.3   -1.4    6.5
N    -1.3   -2.4    6.9
N    -3.3   -1.8    5.9
H     0.3    1.7    4.0
H     0.5    0.1    4.5
H    -1.1    2.3    6.1
H     0.6    1.9    6.3
H    -0.5    0.9    8.1
H     0.1   -0.4    7.0
H    -2.7    0.5    6.6
H    -1.6   -3.3    6.7
H    -0.9   -2.3    7.8
H    -3.9   -1.0    5.6
N    -2.6    2.6    3.1
C    -1.8    3.0    1.9
H    -3.4    3.3    3.3
H    -1.7    4.0    1.8
H    -2.2    2.5    1.0
H    -0.8    2.6    2.1
