          35
 sphere cut out from bulk 
C    -0.0   -0.2    0.1
C    -0.2   -0.7    1.6
O     0.7   -1.3    2.2
H     1.0   -0.6   -0.2
H    -0.1    0.8    0.0
H    -0.8   -0.7   -0.5
N    -1.3   -0.3    2.3
C    -2.6    0.4    1.8
C    -3.4   -0.7    1.1
O    -4.0   -1.5    1.7
H    -1.4   -0.7    3.2
H    -3.1    0.5    2.8
C    -2.4    1.8    1.3
C    -3.6    2.6    1.4
C    -3.5    4.0    0.7
N    -3.5    4.0   -0.7
C    -2.3    3.9   -1.5
N    -2.6    3.6   -2.9
N    -1.1    3.9   -1.1
H    -1.9    1.8    0.3
H    -1.6    2.3    2.0
H    -3.9    2.8    2.4
H    -4.5    2.1    0.9
H    -2.6    4.5    1.1
H    -4.4    4.6    1.0
H    -4.3    3.7   -1.2
H    -1.7    3.7   -3.4
H    -3.3    4.2   -3.2
H    -1.0    3.9   -0.1
N    -3.6   -0.6   -0.3
C    -3.3    0.3   -1.3
H    -4.2   -1.4   -0.6
H    -3.5   -0.1   -2.3
H    -2.3    0.6   -1.3
H    -3.9    1.2   -1.3
