          35
 sphere cut out from bulk 
C    -1.0   -1.8    1.4
C    -1.3   -1.2    2.8
O    -1.2   -1.9    3.8
H    -0.1   -1.4    1.0
H    -0.9   -2.9    1.5
H    -1.8   -1.6    0.7
N    -1.7    0.1    2.8
C    -1.8    1.0    1.7
C    -0.4    1.3    1.0
O     0.6    1.3    1.7
H    -1.8    0.5    3.7
H    -2.4    0.6    0.9
C    -2.5    2.4    2.1
C    -1.6    3.4    2.8
C    -0.9    3.0    4.2
N    -0.1    4.0    4.8
C     1.2    4.4    4.3
N     1.9    3.3    3.7
N     1.6    5.5    4.6
H    -3.3    2.1    2.8
H    -2.9    2.8    1.2
H    -2.2    4.3    3.0
H    -0.8    3.7    2.1
H    -0.4    2.1    4.1
H    -1.8    2.8    4.9
H    -0.6    4.8    5.1
H     2.7    3.6    3.2
H     1.4    2.6    3.2
H     2.6    5.7    4.3
N    -0.5    1.6   -0.3
C     0.7    2.0   -1.1
H    -1.4    1.5   -0.8
H     1.5    2.0   -0.4
H     0.5    3.0   -1.5
H     0.8    1.3   -1.9
