          35
 sphere cut out from bulk 
C     0.3    1.0   -0.1
C    -0.3    1.1    1.3
O    -0.6    2.1    1.8
H     0.5   -0.0   -0.4
H     1.2    1.6   -0.1
H    -0.4    1.4   -0.8
N    -0.4   -0.1    1.9
C    -0.8   -0.2    3.3
C    -0.5   -1.7    3.8
O     0.3   -2.4    3.1
H     0.0   -1.0    1.6
H    -0.2    0.5    3.9
C    -2.3    0.1    3.5
C    -3.3   -0.8    2.9
C    -4.6   -1.0    3.7
N    -4.3   -1.6    5.0
C    -4.8   -1.2    6.2
N    -5.1    0.1    6.3
N    -5.0   -2.0    7.2
H    -2.5    1.2    3.2
H    -2.5    0.1    4.6
H    -2.9   -1.8    2.7
H    -3.6   -0.4    1.9
H    -5.3   -1.6    3.1
H    -5.1   -0.0    3.9
H    -4.2   -2.7    4.9
H    -5.3    0.4    7.3
H    -4.4    0.8    5.9
H    -5.0   -3.0    7.0
N    -1.0   -2.0    5.0
C    -0.7   -3.4    5.5
H    -1.7   -1.5    5.4
H     0.3   -3.6    5.4
H    -1.3   -4.2    4.9
H    -1.0   -3.4    6.5
