          35
 sphere cut out from bulk 
C    -0.6    0.5    3.6
C    -2.0    0.1    4.0
O    -2.2   -0.5    5.1
H    -0.5    1.6    3.5
H    -0.4    0.1    2.6
H     0.1    0.1    4.3
N    -3.0    0.4    3.2
C    -3.0    1.3    2.0
C    -3.2    2.8    2.4
O    -2.9    3.6    1.5
H    -4.0    0.2    3.6
H    -2.0    1.2    1.6
C    -4.0    0.8    0.9
C    -5.4    0.4    1.4
C    -6.3    1.5    2.0
N    -7.2    0.9    3.0
C    -6.9    0.7    4.2
N    -7.9    0.2    5.1
N    -5.6    0.8    4.6
H    -3.5   -0.0    0.4
H    -4.1    1.6    0.2
H    -5.3   -0.4    2.1
H    -5.9   -0.1    0.6
H    -6.9    1.9    1.2
H    -5.7    2.2    2.5
H    -8.2    1.2    2.8
H    -7.7   -0.1    6.0
H    -8.6   -0.3    4.6
H    -5.5    0.5    5.6
N    -3.6    3.1    3.6
C    -3.9    4.4    4.0
H    -4.1    2.3    4.2
H    -3.4    5.1    3.3
H    -3.6    4.6    5.0
H    -5.0    4.6    4.0
