          35
 sphere cut out from bulk 
C     0.8    0.5    2.8
C     0.4   -0.9    2.5
O     1.3   -1.8    2.6
H     0.2    0.9    3.7
H     1.8    0.6    3.0
H     0.5    1.1    1.9
N    -0.9   -1.2    2.2
C    -1.9   -0.3    1.8
C    -2.5    0.4    2.9
O    -3.0   -0.1    3.9
H    -1.0   -2.2    2.1
H    -1.4    0.4    1.1
C    -3.0   -1.1    1.0
C    -2.6   -2.0   -0.1
C    -1.8   -1.4   -1.3
N    -0.4   -1.2   -1.1
C     0.3   -0.1   -0.8
N     1.6   -0.4   -0.5
N    -0.1    1.1   -0.8
H    -3.7   -0.4    0.7
H    -3.5   -1.7    1.8
H    -3.5   -2.5   -0.5
H    -2.0   -2.9    0.2
H    -2.2   -0.4   -1.5
H    -2.0   -2.0   -2.2
H     0.1   -2.1   -1.2
H     2.1    0.5   -0.2
H     1.8   -1.1    0.2
H    -1.1    1.2   -1.2
N    -2.6    1.8    2.7
C    -3.2    2.7    3.7
H    -2.1    2.1    1.9
H    -3.7    2.1    4.5
H    -3.9    3.4    3.2
H    -2.4    3.3    4.2
