          35
 sphere cut out from bulk 
C     0.5    0.1    0.6
C     0.0   -0.2    2.0
O     0.8   -0.7    2.8
H     0.9   -0.9    0.1
H     1.4    0.8    0.6
H    -0.3    0.5   -0.1
N    -1.3    0.1    2.2
C    -1.9   -0.1    3.5
C    -3.4    0.1    3.2
O    -3.8    0.6    2.2
H    -1.9    0.5    1.5
H    -1.7   -1.1    3.9
C    -1.4    0.9    4.6
C    -0.5    0.3    5.6
C     0.6    1.3    6.0
N     1.7    0.7    6.8
C     2.9    0.3    6.2
N     2.9    0.2    4.8
N     3.9    0.2    7.0
H    -2.3    1.4    5.1
H    -1.0    1.8    4.0
H    -1.0   -0.0    6.5
H     0.0   -0.5    5.1
H     0.2    2.1    6.7
H     1.0    1.8    5.1
H     1.8    0.9    7.8
H     2.1   -0.1    4.3
H     3.8   -0.2    4.5
H     4.7   -0.1    6.6
N    -4.3   -0.4    4.2
C    -4.0   -1.0    5.5
H    -5.3   -0.2    3.9
H    -3.1   -1.6    5.4
H    -4.8   -1.6    5.8
H    -3.8   -0.2    6.2
