          35
 sphere cut out from bulk 
C     0.3   -1.0   -0.3
C     0.3   -0.8    1.1
O     1.4   -0.6    1.8
H    -0.7   -1.1   -0.8
H     0.9   -1.9   -0.5
H     0.8   -0.2   -0.8
N    -0.9   -0.8    1.8
C    -1.2   -0.6    3.2
C    -1.0    0.8    3.8
O    -1.9    1.4    4.3
H    -1.7   -0.9    1.2
H    -2.3   -0.8    3.3
C    -0.5   -1.7    4.0
C    -0.9   -1.7    5.5
C    -0.2   -2.8    6.3
N    -0.6   -4.1    5.9
C     0.3   -5.1    5.4
N     1.5   -4.6    4.9
N     0.1   -6.4    5.4
H     0.6   -1.6    3.9
H    -0.7   -2.7    3.6
H    -1.9   -1.7    5.6
H    -0.6   -0.7    6.0
H    -0.5   -2.7    7.4
H     0.9   -2.7    6.3
H    -1.4   -4.5    6.3
H     2.0   -5.4    4.4
H     1.4   -3.8    4.3
H    -0.8   -6.6    6.0
N     0.3    1.3    3.6
C     0.6    2.6    4.1
H     0.9    0.8    3.0
H     1.5    2.6    4.7
H    -0.2    3.0    4.6
H     0.8    3.3    3.2
