          35
 sphere cut out from bulk 
C    -1.3    1.3    0.2
C    -0.9    0.7    1.5
O     0.2    1.0    2.1
H    -0.6    1.0   -0.6
H    -1.2    2.4    0.3
H    -2.3    1.0   -0.1
N    -1.7   -0.3    2.0
C    -1.5   -1.0    3.2
C    -1.4   -2.5    3.0
O    -2.4   -3.3    3.4
H    -2.5   -0.6    1.5
H    -0.5   -0.7    3.6
C    -2.5   -0.5    4.3
C    -4.0   -0.9    4.2
C    -4.7   -0.4    3.0
N    -4.4   -1.2    1.8
C    -5.0   -1.0    0.5
N    -5.4    0.3    0.3
N    -5.1   -2.0   -0.3
H    -2.4    0.6    4.4
H    -2.1   -1.0    5.3
H    -4.5   -0.4    5.1
H    -4.1   -2.0    4.3
H    -4.4    0.7    2.8
H    -5.8   -0.4    3.2
H    -4.3   -2.2    2.0
H    -6.0    0.5   -0.5
H    -5.6    0.9    1.1
H    -5.5   -1.7   -1.2
N    -0.3   -3.0    2.4
C     0.8   -2.3    1.8
H    -0.4   -4.0    2.2
H     1.0   -1.4    2.3
H     0.6   -2.1    0.7
H     1.7   -3.0    1.8
