          35
 sphere cut out from bulk 
C    -0.1    0.2   -0.1
C    -0.1    0.3    1.4
O     0.9    0.7    2.0
H     0.7   -0.5   -0.5
H     0.1    1.2   -0.6
H    -1.1   -0.1   -0.5
N    -1.2   -0.0    2.0
C    -1.3    0.0    3.5
C    -2.3   -1.1    3.9
O    -3.3   -1.2    3.2
H    -2.0   -0.3    1.6
H    -0.3   -0.2    3.9
C    -1.8    1.4    4.0
C    -1.8    1.6    5.5
C    -2.2    3.0    6.0
N    -2.2    3.2    7.4
C    -1.1    3.0    8.2
N     0.1    3.5    7.7
N    -1.2    2.3    9.3
H    -2.8    1.6    3.5
H    -1.1    2.1    3.6
H    -0.8    1.3    5.9
H    -2.5    0.9    6.0
H    -3.2    3.3    5.5
H    -1.5    3.7    5.5
H    -3.0    2.7    7.8
H     0.8    3.6    8.3
H    -0.1    4.4    7.1
H    -0.4    2.4    9.9
N    -2.1   -1.8    5.0
C    -1.0   -1.8    5.9
H    -2.9   -2.5    5.2
H    -0.8   -2.8    6.2
H    -1.2   -1.2    6.8
H    -0.1   -1.4    5.5
