          35
 sphere cut out from bulk 
C    -0.3   -0.3   -0.3
C    -0.2    0.1    1.2
O     0.8    0.6    1.6
H     0.5   -1.1   -0.5
H    -0.1    0.5   -0.9
H    -1.3   -0.7   -0.5
N    -1.3   -0.1    1.9
C    -1.4    0.4    3.3
C    -0.8   -0.7    4.3
O    -1.5   -1.5    5.0
H    -2.1   -0.5    1.5
H    -0.7    1.2    3.4
C    -2.8    0.9    3.7
C    -4.0   -0.1    4.0
C    -4.2   -1.1    2.8
N    -5.5   -1.9    3.0
C    -6.7   -1.4    2.7
N    -7.7   -2.2    3.1
N    -7.0   -0.2    2.1
H    -3.1    1.6    2.9
H    -2.7    1.5    4.6
H    -4.9    0.5    4.1
H    -3.8   -0.7    4.9
H    -3.4   -1.8    2.7
H    -4.3   -0.6    1.8
H    -5.4   -2.5    3.8
H    -8.6   -1.9    2.8
H    -7.6   -3.2    2.9
H    -6.2    0.4    2.0
N     0.5   -0.8    4.2
C     1.3   -1.8    4.9
H     1.0   -0.2    3.5
H     2.1   -1.3    5.5
H     1.7   -2.5    4.2
H     0.7   -2.3    5.6
