          35
 sphere cut out from bulk 
C    -0.7    1.5   -0.0
C    -0.5    1.1    1.4
O     0.5    1.4    2.0
H    -1.6    1.0   -0.5
H     0.2    1.3   -0.6
H    -0.9    2.6   -0.0
N    -1.6    0.4    1.9
C    -1.7    0.0    3.3
C    -3.1   -0.6    3.5
O    -4.0   -0.4    2.6
H    -2.5    0.3    1.4
H    -0.9   -0.8    3.6
C    -1.5    1.2    4.3
C    -2.1    2.5    3.9
C    -1.5    3.7    4.5
N    -1.7    5.0    3.8
C    -1.0    5.3    2.6
N     0.1    4.6    2.3
N    -1.4    6.2    1.8
H    -0.4    1.4    4.4
H    -1.8    0.9    5.3
H    -3.2    2.5    4.2
H    -2.1    2.6    2.8
H    -0.4    3.6    4.6
H    -1.8    3.9    5.5
H    -2.6    5.4    3.8
H     0.5    4.8    1.4
H     0.2    3.6    2.5
H    -2.2    6.7    2.1
N    -3.4   -1.4    4.6
C    -2.5   -1.7    5.7
H    -4.3   -1.7    4.6
H    -2.8   -2.7    6.0
H    -2.5   -1.0    6.5
H    -1.4   -1.8    5.3
