          35
 sphere cut out from bulk 
C     0.4   -0.5    1.0
C     0.1   -0.9    2.4
O     0.7   -1.9    3.0
H     1.4   -0.9    0.7
H     0.3    0.6    0.8
H    -0.3   -1.0    0.3
N    -0.8   -0.1    3.1
C    -1.8    0.8    2.7
C    -2.2    1.6    3.9
O    -2.2    1.2    5.0
H    -0.9   -0.4    4.1
H    -1.3    1.4    1.9
C    -3.0    0.1    2.0
C    -3.7   -0.9    3.0
C    -4.4   -2.1    2.3
N    -3.7   -2.8    1.3
C    -2.3   -3.2    1.5
N    -2.0   -3.7    2.7
N    -1.6   -3.1    0.4
H    -2.6   -0.5    1.1
H    -3.7    0.8    1.6
H    -4.4   -0.4    3.6
H    -3.0   -1.3    3.7
H    -5.3   -1.7    1.8
H    -4.8   -2.7    3.1
H    -3.8   -2.5    0.3
H    -1.0   -3.5    3.0
H    -2.7   -3.6    3.5
H    -0.7   -3.6    0.6
N    -2.8    2.9    3.6
C    -2.8    3.6    2.3
H    -3.0    3.4    4.4
H    -3.4    3.1    1.6
H    -3.2    4.6    2.5
H    -1.8    3.8    1.9
