          35
 sphere cut out from bulk 
C    -0.1   -0.3    0.9
C    -1.2   -1.4    1.3
O    -0.8   -2.5    1.7
H     0.9   -0.8    0.9
H    -0.1    0.4    1.7
H    -0.3    0.1   -0.0
N    -2.5   -1.1    1.1
C    -3.2    0.0    0.6
C    -3.1    0.1   -1.0
O    -2.1    0.1   -1.6
H    -3.1   -1.9    1.3
H    -4.3   -0.2    0.8
C    -2.9    1.4    1.1
C    -3.9    2.5    0.8
C    -5.1    2.7    1.8
N    -5.8    1.4    2.1
C    -6.5    0.7    1.2
N    -6.8   -0.6    1.7
N    -6.8    1.0    0.0
H    -1.9    1.7    0.8
H    -2.7    1.3    2.2
H    -4.2    2.4   -0.2
H    -3.4    3.5    0.8
H    -5.8    3.4    1.4
H    -4.7    3.1    2.8
H    -5.4    0.9    2.9
H    -7.5   -1.0    1.1
H    -7.1   -0.6    2.7
H    -6.4    1.9   -0.2
N    -4.3   -0.0   -1.6
C    -4.5    0.1   -3.1
H    -5.2    0.1   -1.1
H    -5.5    0.0   -3.4
H    -3.9   -0.8   -3.5
H    -4.0    1.0   -3.5
