          35
 sphere cut out from bulk 
C    -0.5   -0.1   -0.1
C    -0.4    0.2    1.4
O     0.7    0.7    1.9
H     0.2   -0.9   -0.3
H    -0.3    0.8   -0.7
H    -1.5   -0.5   -0.3
N    -1.5   -0.1    2.2
C    -1.5    0.0    3.6
C    -0.8    1.3    4.2
O     0.0    1.3    5.0
H    -2.2   -0.6    1.7
H    -2.6    0.1    3.9
C    -0.9   -1.2    4.3
C    -1.4   -1.4    5.8
C    -0.7   -2.6    6.5
N    -1.2   -2.8    7.8
C    -0.7   -3.8    8.7
N     0.6   -4.0    8.6
N    -1.6   -4.3    9.4
H     0.2   -1.1    4.3
H    -1.1   -2.1    3.7
H    -2.5   -1.6    5.8
H    -1.2   -0.5    6.4
H     0.4   -2.4    6.5
H    -0.8   -3.5    5.8
H    -2.2   -2.7    7.9
H     1.0   -4.6    9.3
H     1.2   -3.2    8.3
H    -1.1   -5.0   10.1
N    -1.3    2.5    3.7
C    -2.3    2.8    2.6
H    -0.8    3.3    4.0
H    -2.7    3.8    2.8
H    -3.1    2.0    2.7
H    -1.9    2.7    1.6
