          35
 sphere cut out from bulk 
C    -0.1   -0.0    0.5
C    -0.3   -0.5    2.0
O     0.6   -0.8    2.7
H     1.0   -0.0    0.3
H    -0.5    1.0    0.3
H    -0.6   -0.7   -0.2
N    -1.6   -0.4    2.5
C    -2.9   -0.0    1.8
C    -3.2   -1.1    0.7
O    -3.4   -2.2    1.1
H    -1.7   -0.8    3.4
H    -3.6   -0.3    2.6
C    -3.0    1.5    1.6
C    -4.5    1.9    1.5
C    -4.7    3.4    1.2
N    -4.1    4.2    2.3
C    -4.8    4.5    3.4
N    -4.2    5.4    4.2
N    -6.0    3.9    3.6
H    -2.5    1.8    0.7
H    -2.6    2.0    2.4
H    -5.0    1.6    2.4
H    -5.0    1.4    0.7
H    -5.8    3.6    1.1
H    -4.2    3.7    0.3
H    -3.5    5.0    1.9
H    -4.6    5.5    5.2
H    -3.2    5.4    4.3
H    -6.3    4.1    4.5
N    -3.4   -0.8   -0.6
C    -3.1    0.4   -1.4
H    -3.6   -1.6   -1.1
H    -3.9    1.2   -1.1
H    -3.3    0.1   -2.4
H    -2.1    0.8   -1.3
