          35
 sphere cut out from bulk 
C    -1.0    0.0   -0.0
C    -0.5    0.1    1.4
O     0.6   -0.1    1.8
H    -0.1   -0.3   -0.6
H    -1.3    1.0   -0.4
H    -1.8   -0.7   -0.1
N    -1.5    0.5    2.4
C    -2.9    0.7    2.2
C    -3.4    1.9    3.1
O    -3.9    1.7    4.2
H    -1.2    0.5    3.3
H    -3.1    1.0    1.1
C    -3.7   -0.6    2.5
C    -5.2   -0.5    2.0
C    -6.0   -1.7    2.3
N    -5.5   -2.8    1.4
C    -6.0   -4.1    1.6
N    -5.5   -5.0    0.6
N    -6.7   -4.6    2.6
H    -3.7   -0.8    3.5
H    -3.3   -1.4    1.9
H    -5.3   -0.2    1.0
H    -5.7    0.3    2.6
H    -7.1   -1.5    2.1
H    -5.9   -2.0    3.3
H    -5.4   -2.6    0.5
H    -5.8   -6.0    0.9
H    -4.5   -4.9    0.4
H    -7.1   -3.8    3.1
N    -3.1    3.1    2.6
C    -2.4    3.5    1.4
H    -3.4    3.9    3.2
H    -2.4    4.6    1.3
H    -2.9    3.1    0.5
H    -1.4    3.2    1.4
