          35
 sphere cut out from bulk 
C    -0.2    1.3    1.4
C     0.3   -0.0    1.8
O     1.5   -0.2    2.2
H    -0.6    1.3    0.3
H     0.6    2.0    1.4
H    -1.0    1.7    2.0
N    -0.6   -1.1    1.8
C    -2.0   -1.0    1.5
C    -2.9   -0.3    2.6
O    -3.8    0.3    2.2
H    -0.1   -1.9    2.1
H    -2.2   -0.4    0.6
C    -2.5   -2.5    1.2
C    -2.0   -3.1   -0.1
C    -2.5   -4.5   -0.3
N    -2.1   -5.1   -1.6
C    -2.4   -4.6   -2.8
N    -3.7   -4.1   -2.9
N    -1.6   -4.6   -3.9
H    -3.6   -2.4    1.2
H    -2.3   -3.1    2.1
H    -0.9   -3.1   -0.1
H    -2.2   -2.4   -0.9
H    -3.6   -4.4   -0.3
H    -2.2   -5.1    0.5
H    -1.1   -5.4   -1.5
H    -3.9   -3.9   -3.9
H    -4.4   -4.6   -2.4
H    -0.7   -4.9   -3.6
N    -2.5   -0.5    3.9
C    -1.5   -1.3    4.6
H    -3.2   -0.0    4.5
H    -1.8   -1.4    5.6
H    -0.5   -0.9    4.5
H    -1.5   -2.4    4.2
