          35
 sphere cut out from bulk 
C     1.5    0.1    1.8
C     0.4   -0.9    2.3
O     0.7   -2.0    2.7
H     2.5   -0.4    1.9
H     1.5    1.0    2.4
H     1.3    0.4    0.7
N    -0.9   -0.5    2.2
C    -1.4    0.9    1.9
C    -2.0    1.5    3.2
O    -2.9    0.8    3.9
H    -1.5   -1.1    2.7
H    -0.5    1.5    1.7
C    -2.4    0.9    0.8
C    -1.7    1.0   -0.6
C    -1.6    2.5   -1.1
N    -1.1    3.5   -0.1
C     0.2    3.5    0.4
N     1.2    3.1   -0.5
N     0.4    3.8    1.6
H    -3.1    1.7    0.9
H    -2.9   -0.1    0.8
H    -2.2    0.5   -1.4
H    -0.7    0.6   -0.6
H    -2.6    2.9   -1.3
H    -1.0    2.6   -2.0
H    -1.7    3.8    0.6
H     1.0    2.8   -1.4
H     2.1    2.8   -0.2
H     1.4    4.0    1.8
N    -1.7    2.8    3.5
C    -2.2    3.5    4.6
H    -0.9    3.2    2.9
H    -3.3    3.3    4.7
H    -2.1    4.6    4.4
H    -1.8    3.2    5.5
