          35
 sphere cut out from bulk 
C    -1.3    0.4   -0.2
C    -0.8    0.3    1.2
O     0.4    0.1    1.4
H    -0.7    1.1   -0.8
H    -2.4    0.8   -0.2
H    -1.3   -0.6   -0.7
N    -1.7    0.3    2.2
C    -1.5   -0.0    3.6
C    -0.3    0.7    4.2
O     0.5    0.1    5.0
H    -2.7    0.4    1.9
H    -2.4    0.4    4.2
C    -1.5   -1.5    3.9
C    -0.4   -2.4    3.3
C    -0.1   -3.6    4.2
N     1.3   -4.1    4.0
C     2.4   -3.7    4.8
N     2.2   -2.5    5.5
N     3.4   -4.4    4.7
H    -2.5   -1.9    3.6
H    -1.5   -1.6    5.0
H     0.5   -1.7    3.3
H    -0.6   -2.7    2.3
H    -0.8   -4.4    4.0
H    -0.2   -3.3    5.2
H     1.4   -5.0    3.6
H     1.6   -1.8    5.2
H     3.0   -2.2    5.9
H     4.2   -4.0    5.2
N    -0.1    2.0    3.9
C     1.1    2.7    4.2
H    -0.6    2.3    3.1
H     0.8    3.8    4.2
H     1.9    2.5    3.5
H     1.4    2.4    5.2
