          35
 sphere cut out from bulk 
C    -1.4    2.0    2.9
C    -1.0    0.5    3.1
O    -0.0    0.2    3.8
H    -0.6    2.6    3.1
H    -2.3    2.3    3.5
H    -1.7    2.1    1.8
N    -1.8   -0.5    2.6
C    -3.1   -0.3    2.0
C    -4.2    0.3    3.0
O    -4.1    0.1    4.2
H    -1.5   -1.4    2.9
H    -3.0    0.5    1.2
C    -3.7   -1.6    1.4
C    -3.3   -2.9    1.9
C    -3.8   -3.4    3.3
N    -3.3   -2.6    4.5
C    -1.9   -2.6    4.8
N    -1.6   -1.8    5.8
N    -1.1   -3.4    4.1
H    -3.3   -1.6    0.3
H    -4.8   -1.5    1.3
H    -2.2   -3.1    1.9
H    -3.7   -3.7    1.2
H    -3.5   -4.4    3.5
H    -4.9   -3.3    3.4
H    -3.7   -1.7    4.6
H    -0.7   -1.3    5.7
H    -2.3   -1.1    6.1
H    -0.2   -3.3    4.5
N    -5.2    1.1    2.5
C    -5.3    1.5    1.1
H    -5.8    1.4    3.2
H    -6.3    2.1    1.1
H    -5.5    0.6    0.4
H    -4.5    2.1    0.8
