          35
 sphere cut out from bulk 
C    -0.6   -0.8    0.0
C    -0.3   -0.6    1.5
O     0.3   -1.3    2.2
H     0.4   -0.8   -0.5
H    -1.2   -0.1   -0.4
H    -1.0   -1.8   -0.1
N    -0.9    0.5    2.0
C    -0.8    0.9    3.4
C    -1.6    0.2    4.5
O    -1.3    0.4    5.7
H    -1.5    1.1    1.4
H     0.3    0.6    3.7
C    -0.9    2.5    3.5
C    -2.2    3.1    3.2
C    -3.0    3.6    4.4
N    -3.3    2.7    5.5
C    -4.5    1.9    5.4
N    -4.6    1.0    6.4
N    -5.3    2.1    4.4
H    -0.1    2.9    2.9
H    -0.6    2.7    4.6
H    -2.9    2.4    2.7
H    -2.1    3.9    2.5
H    -3.9    4.1    4.1
H    -2.4    4.4    4.9
H    -2.5    2.3    6.0
H    -5.2    0.2    6.3
H    -3.8    0.8    6.9
H    -6.1    1.5    4.5
N    -2.7   -0.6    4.2
C    -3.4   -0.8    2.9
H    -3.1   -1.0    5.0
H    -3.7    0.2    2.5
H    -4.3   -1.3    3.2
H    -2.9   -1.4    2.2
