          35
 sphere cut out from bulk 
C    -1.3    2.1    1.1
C    -1.0    1.3    2.5
O     0.1    1.4    3.0
H    -0.7    1.6    0.4
H    -1.0    3.1    1.3
H    -2.4    2.0    0.8
N    -2.1    0.7    3.0
C    -2.1   -0.2    4.2
C    -1.9    0.6    5.5
O    -2.7    0.4    6.4
H    -3.0    0.8    2.5
H    -3.1   -0.6    4.3
C    -1.1   -1.4    4.0
C    -1.1   -2.3    5.2
C    -2.4   -3.0    5.6
N    -3.1   -3.7    4.6
C    -2.7   -4.9    4.0
N    -3.5   -5.3    2.9
N    -1.6   -5.4    4.4
H    -0.1   -1.0    3.8
H    -1.5   -1.9    3.1
H    -0.7   -1.8    6.1
H    -0.3   -3.1    5.0
H    -3.1   -2.3    6.1
H    -2.2   -3.8    6.4
H    -3.7   -3.1    4.0
H    -3.2   -6.2    2.6
H    -4.5   -5.2    3.1
H    -1.4   -6.3    4.0
N    -0.8    1.3    5.6
C    -0.4    2.0    6.8
H    -0.2    1.4    4.8
H    -1.2    1.8    7.6
H    -0.4    3.1    6.7
H     0.6    1.7    7.2
