          35
 sphere cut out from bulk 
C     0.5    0.6    0.5
C     0.1    0.2    1.9
O     0.9    0.0    2.8
H     1.5    0.4    0.3
H     0.3    1.6    0.2
H    -0.1   -0.1   -0.3
N    -1.2    0.1    2.2
C    -2.5    0.2    1.5
C    -2.7   -1.1    0.6
O    -1.8   -1.7    0.1
H    -1.3   -0.2    3.2
H    -3.3    0.2    2.3
C    -2.7    1.5    0.7
C    -2.6    2.7    1.5
C    -2.8    4.0    0.7
N    -1.6    4.3   -0.2
C    -1.5    3.8   -1.4
N    -2.7    3.7   -2.2
N    -0.3    3.4   -1.8
H    -3.6    1.4    0.1
H    -1.9    1.5   -0.1
H    -1.7    2.8    2.1
H    -3.4    2.7    2.3
H    -2.9    4.9    1.4
H    -3.7    4.0    0.1
H    -0.7    4.4    0.3
H    -2.5    3.4   -3.1
H    -3.3    4.5   -2.1
H    -0.3    3.1   -2.8
N    -4.0   -1.4    0.5
C    -5.2   -0.9    1.1
H    -4.2   -2.3   -0.1
H    -5.4    0.1    0.9
H    -5.2   -1.1    2.2
H    -6.1   -1.5    0.8
