          35
 sphere cut out from bulk 
C     0.4   -0.0    1.2
C     0.1    0.2    2.6
O     1.0    0.3    3.5
H     1.4    0.3    1.0
H    -0.3    0.5    0.5
H     0.3   -1.1    0.9
N    -1.2    0.3    3.0
C    -2.4   -0.3    2.3
C    -3.3    0.7    1.6
O    -4.3    0.2    1.0
H    -1.4    0.4    4.0
H    -1.9   -0.9    1.4
C    -3.1   -1.3    3.2
C    -2.5   -2.7    3.5
C    -1.0   -2.7    4.1
N    -0.7   -1.7    5.2
C    -1.6   -1.2    6.0
N    -2.5   -2.1    6.7
N    -1.7    0.1    6.1
H    -4.1   -1.5    2.7
H    -3.4   -0.8    4.1
H    -2.4   -3.3    2.6
H    -3.1   -3.2    4.2
H    -0.3   -2.5    3.3
H    -0.9   -3.7    4.5
H    -0.1   -1.0    4.8
H    -3.1   -1.7    7.4
H    -2.0   -3.0    6.9
H    -2.3    0.4    6.9
N    -3.0    2.0    1.8
C    -3.8    3.0    1.2
H    -2.2    2.2    2.3
H    -4.2    3.7    2.0
H    -4.7    2.6    0.7
H    -3.2    3.7    0.6
