          35
 sphere cut out from bulk 
C    -0.2    1.0    0.6
C    -0.2    0.3    2.0
O     0.7   -0.4    2.4
H     0.8    0.8    0.2
H    -0.3    2.0    0.7
H    -1.0    0.6   -0.1
N    -1.4    0.4    2.7
C    -2.6    1.1    2.3
C    -3.1    1.8    3.6
O    -3.9    1.2    4.4
H    -1.4   -0.1    3.6
H    -2.4    1.9    1.6
C    -3.7    0.2    1.8
C    -4.8    1.0    1.1
C    -4.4    1.5   -0.3
N    -5.2    2.5   -0.9
C    -5.0    3.8   -0.5
N    -5.9    4.8   -1.1
N    -3.9    4.2    0.2
H    -4.1   -0.4    2.6
H    -3.2   -0.5    1.1
H    -5.1    1.8    1.7
H    -5.7    0.3    1.0
H    -4.4    0.6   -1.1
H    -3.4    1.9   -0.3
H    -6.2    2.3   -1.1
H    -6.0    5.6   -0.5
H    -6.8    4.4   -1.4
H    -3.9    5.2    0.2
N    -2.7    3.1    3.8
C    -1.8    3.9    3.0
H    -3.0    3.5    4.7
H    -1.7    4.9    3.4
H    -2.2    4.0    1.9
H    -0.8    3.5    2.9
