          35
 sphere cut out from bulk 
C    -0.3    1.3   -0.2
C     0.1    1.0    1.2
O     1.2    1.4    1.7
H     0.5    1.9   -0.7
H    -1.2    1.9   -0.3
H    -0.5    0.3   -0.8
N    -0.8    0.4    2.0
C    -2.2    0.1    1.7
C    -3.2    1.3    1.8
O    -4.3    1.1    1.4
H    -0.5    0.2    2.9
H    -2.3   -0.3    0.7
C    -2.7   -1.1    2.6
C    -2.5   -2.5    2.2
C    -1.0   -3.0    2.2
N    -0.3   -2.6    1.0
C    -0.7   -2.9   -0.3
N    -1.2   -4.2   -0.5
N    -0.7   -2.0   -1.2
H    -3.8   -0.9    2.7
H    -2.3   -0.9    3.6
H    -3.0   -2.7    1.3
H    -3.0   -3.1    3.0
H    -1.0   -4.1    2.2
H    -0.5   -2.7    3.0
H     0.0   -1.6    1.0
H    -1.4   -4.5   -1.4
H    -0.8   -4.9    0.1
H    -0.9   -2.3   -2.1
N    -2.7    2.4    2.3
C    -3.4    3.6    2.4
H    -1.7    2.4    2.5
H    -3.4    4.0    3.5
H    -4.5    3.4    2.1
H    -3.0    4.4    1.8
