          35
 sphere cut out from bulk 
C     1.0   -1.8    0.8
C     0.3   -1.4    2.1
O     0.6   -1.9    3.2
H     1.2   -2.9    0.9
H     2.0   -1.3    0.8
H     0.5   -1.6   -0.1
N    -0.7   -0.4    1.9
C    -1.6    0.1    3.0
C    -2.4    1.2    2.5
O    -3.5    1.4    2.9
H    -1.0   -0.3    1.0
H    -2.3   -0.7    3.2
C    -0.9    0.5    4.3
C     0.0    1.7    4.3
C     1.4    1.5    3.6
N     2.2    2.7    3.8
C     3.4    2.9    3.0
N     3.9    1.8    2.5
N     3.9    4.0    2.8
H    -0.3   -0.4    4.7
H    -1.7    0.7    5.0
H     0.3    1.9    5.3
H    -0.5    2.6    3.9
H     1.2    1.4    2.5
H     1.8    0.6    3.9
H     1.8    3.5    4.0
H     4.9    1.9    2.1
H     3.9    0.9    3.1
H     3.3    4.8    3.1
N    -1.8    2.0    1.5
C    -2.5    3.2    1.0
H    -0.8    1.9    1.3
H    -2.3    3.3   -0.1
H    -2.2    4.1    1.6
H    -3.6    3.1    1.1
