          35
 sphere cut out from bulk 
C     1.0    1.9    1.2
C     0.1    1.6    2.3
O    -0.1    2.5    3.2
H     2.0    2.0    1.7
H     0.8    2.9    0.8
H     1.1    1.2    0.4
N    -0.6    0.4    2.2
C    -1.4   -0.3    3.2
C    -2.9   -0.3    2.9
O    -3.5   -1.4    2.9
H    -0.3   -0.1    1.4
H    -1.1   -1.4    3.1
C    -1.1    0.0    4.7
C     0.2   -0.5    5.2
C     1.0    0.5    6.1
N     1.7    1.6    5.4
C     2.9    1.3    4.8
N     3.3    2.4    3.9
N     3.7    0.3    4.9
H    -1.9   -0.4    5.3
H    -1.2    1.1    4.8
H     0.9   -0.7    4.3
H     0.1   -1.4    5.7
H     1.7   -0.0    6.7
H     0.3    1.0    6.8
H     1.1    2.2    4.8
H     4.3    2.3    3.7
H     3.0    3.3    4.2
H     3.3   -0.4    5.5
N    -3.6    0.8    2.6
C    -3.2    2.2    2.5
H    -4.6    0.6    2.4
H    -2.3    2.4    3.1
H    -4.0    2.9    2.8
H    -2.9    2.5    1.5
