          35
 sphere cut out from bulk 
C     0.5    0.7    0.8
C    -0.0   -0.2    1.9
O     0.7   -1.1    2.4
H     1.4    0.4    0.5
H     0.6    1.7    1.3
H    -0.2    0.9   -0.0
N    -1.4   -0.2    2.2
C    -2.3    0.9    2.0
C    -1.7    2.2    2.7
O    -1.2    2.1    3.8
H    -1.6   -0.8    3.0
H    -2.3    1.2    0.9
C    -3.7    0.6    2.5
C    -4.0    0.6    4.0
C    -3.5   -0.6    4.8
N    -2.1   -0.8    4.8
C    -1.5   -1.9    5.4
N    -0.1   -1.9    5.3
N    -2.1   -2.9    6.0
H    -4.0   -0.4    2.0
H    -4.4    1.3    2.0
H    -5.1    0.7    4.1
H    -3.6    1.5    4.5
H    -4.0   -1.5    4.4
H    -4.0   -0.5    5.8
H    -1.6    0.1    5.0
H     0.3   -2.8    5.6
H     0.2   -1.6    4.4
H    -3.1   -2.7    6.1
N    -2.0    3.4    2.1
C    -1.7    4.7    2.7
H    -2.5    3.4    1.2
H    -2.6    5.3    2.9
H    -1.0    5.2    2.1
H    -1.2    4.5    3.7
