          35
 sphere cut out from bulk 
C     0.1    0.2   -0.4
C    -0.0   -0.4    1.0
O     0.7   -1.4    1.3
H    -0.6    1.1   -0.5
H    -0.1   -0.5   -1.1
H     1.1    0.6   -0.5
N    -1.0    0.1    1.8
C    -1.2   -0.5    3.1
C    -2.7   -0.2    3.5
O    -3.2    0.9    3.1
H    -1.6    0.8    1.5
H    -1.1   -1.6    3.0
C    -0.2    0.0    4.2
C    -0.1   -0.8    5.5
C     0.2   -2.3    5.3
N    -0.9   -3.1    5.1
C    -1.0   -4.1    4.1
N    -1.9   -5.1    4.4
N    -0.4   -4.1    2.9
H    -0.5    1.1    4.4
H     0.8   -0.0    3.6
H    -1.0   -0.7    6.1
H     0.7   -0.3    6.1
H     0.8   -2.6    6.2
H     0.9   -2.4    4.4
H    -1.4   -3.4    6.0
H    -1.9   -5.8    3.6
H    -1.8   -5.5    5.3
H     0.1   -3.2    2.7
N    -3.3   -1.1    4.3
C    -4.6   -0.9    4.8
H    -2.7   -1.9    4.6
H    -4.6   -0.9    5.9
H    -5.3   -1.8    4.5
H    -5.0    0.0    4.4
