          35
 sphere cut out from bulk 
C     0.1    1.0   -0.3
C     0.2    0.2    0.9
O     1.2   -0.5    1.2
H    -0.7    0.6   -1.0
H     1.1    0.9   -0.9
H    -0.1    2.0   -0.1
N    -0.8    0.3    1.9
C    -2.1    1.0    1.8
C    -3.0    0.5    0.6
O    -3.2   -0.7    0.6
H    -0.7   -0.4    2.6
H    -2.6    0.6    2.6
C    -1.9    2.5    2.1
C    -3.2    3.1    2.6
C    -3.3    3.3    4.1
N    -3.1    2.1    4.9
C    -3.8    0.9    4.8
N    -5.2    1.1    4.7
N    -3.2   -0.2    4.8
H    -1.6    3.0    1.2
H    -1.2    2.6    2.8
H    -4.1    2.6    2.2
H    -3.4    4.2    2.2
H    -4.3    3.7    4.4
H    -2.6    4.0    4.5
H    -2.1    1.8    5.0
H    -5.6    2.0    4.6
H    -5.7    0.3    4.2
H    -3.8   -1.0    4.8
N    -3.4    1.3   -0.4
C    -3.1    2.7   -0.8
H    -4.0    0.8   -1.0
H    -3.7    2.9   -1.8
H    -2.1    2.9   -1.0
H    -3.5    3.4   -0.1
