          35
 sphere cut out from bulk 
C     0.2   -1.1    0.3
C     0.1   -0.7    1.8
O     1.1   -0.4    2.4
H     0.6   -0.3   -0.2
H    -0.8   -1.4   -0.1
H     0.9   -1.9    0.2
N    -1.1   -0.6    2.3
C    -1.4   -0.2    3.7
C    -2.5   -1.1    4.2
O    -3.4   -1.5    3.4
H    -2.0   -0.9    1.8
H    -0.4   -0.5    4.2
C    -1.7    1.2    4.0
C    -0.6    2.2    3.5
C    -0.8    2.6    2.0
N     0.5    2.5    1.3
C     0.6    2.8   -0.0
N    -0.1    3.9   -0.5
N     1.3    2.0   -0.8
H    -1.8    1.4    5.1
H    -2.7    1.5    3.5
H     0.4    1.8    3.7
H    -0.6    3.1    4.1
H    -1.1    3.7    2.0
H    -1.5    2.0    1.5
H     1.1    1.7    1.6
H     0.1    4.2   -1.4
H    -0.2    4.7    0.2
H     1.4    2.4   -1.7
N    -2.5   -1.4    5.5
C    -3.5   -2.2    6.2
H    -1.7   -1.1    6.1
H    -4.0   -1.6    7.0
H    -3.2   -3.1    6.6
H    -4.3   -2.4    5.4
