          35
 sphere cut out from bulk 
C    -0.7    0.4   -0.4
C    -0.2    0.5    1.1
O     1.0    0.4    1.4
H     0.2    0.2   -1.0
H    -1.1    1.4   -0.7
H    -1.4   -0.4   -0.5
N    -1.2    0.8    2.0
C    -2.6    0.9    1.9
C    -3.1    1.8    3.0
O    -2.7    1.7    4.1
H    -0.8    0.8    3.0
H    -2.8    1.3    0.8
C    -3.3   -0.5    2.0
C    -4.8   -0.5    1.5
C    -4.9   -0.6   -0.1
N    -6.2   -0.3   -0.6
C    -6.6    1.0   -0.9
N    -5.6    1.7   -1.6
N    -7.7    1.6   -0.6
H    -3.3   -0.8    3.0
H    -2.7   -1.2    1.4
H    -5.3    0.4    1.8
H    -5.3   -1.4    1.9
H    -4.6   -1.6   -0.4
H    -4.2    0.1   -0.5
H    -7.0   -0.8   -0.1
H    -6.0    2.6   -1.9
H    -5.1    1.2   -2.4
H    -8.3    1.0    0.0
N    -4.0    2.8    2.7
C    -4.6    3.2    1.4
H    -4.3    3.3    3.5
H    -4.2    2.6    0.6
H    -4.4    4.2    1.2
H    -5.7    3.0    1.4
