          35
 sphere cut out from bulk 
C    -2.4    1.5   -0.8
C    -1.7    1.6    0.6
O    -0.9    2.5    0.8
H    -3.5    1.3   -0.7
H    -2.0    0.6   -1.4
H    -2.2    2.4   -1.3
N    -2.0    0.7    1.5
C    -2.9   -0.5    1.4
C    -3.6   -0.8    2.8
O    -3.0   -1.4    3.6
H    -1.5    0.7    2.4
H    -3.7   -0.3    0.6
C    -2.1   -1.8    1.0
C    -3.0   -3.0    0.7
C    -3.5   -3.1   -0.8
N    -4.0   -2.0   -1.4
C    -5.3   -1.5   -1.1
N    -5.6   -0.3   -1.8
N    -6.2   -2.0   -0.3
H    -1.4   -2.0    1.8
H    -1.5   -1.5    0.1
H    -3.9   -3.0    1.3
H    -2.5   -3.9    0.9
H    -4.2   -4.0   -0.9
H    -2.6   -3.4   -1.4
H    -3.4   -1.3   -1.8
H    -6.6   -0.0   -1.6
H    -5.3   -0.2   -2.7
H    -5.8   -2.8    0.2
N    -4.8   -0.2    3.0
C    -5.6    0.6    2.0
H    -5.1   -0.3    3.9
H    -6.0   -0.0    1.2
H    -5.0    1.4    1.6
H    -6.4    1.1    2.6
