          35
 sphere cut out from bulk 
C    -0.2    1.1   -0.2
C    -0.1    0.6    1.2
O     1.0    0.5    1.8
H     0.8    1.2   -0.6
H    -0.7    2.1   -0.2
H    -0.8    0.4   -0.8
N    -1.2    0.2    1.9
C    -2.6    0.4    1.4
C    -3.1    1.8    1.1
O    -3.8    2.0    0.1
H    -1.1   -0.1    2.8
H    -2.7   -0.1    0.4
C    -3.6   -0.3    2.4
C    -5.0   -0.3    1.9
C    -6.0    0.5    2.9
N    -5.7    1.9    3.0
C    -6.0    2.9    2.1
N    -6.9    2.6    1.2
N    -5.4    4.1    2.4
H    -3.4    0.1    3.4
H    -3.2   -1.4    2.4
H    -5.4   -1.3    1.9
H    -5.1    0.1    0.9
H    -5.9    0.1    3.9
H    -7.0    0.4    2.6
H    -5.1    2.2    3.8
H    -6.8    3.2    0.3
H    -7.0    1.6    0.9
H    -5.8    4.8    1.7
N    -2.8    2.8    1.9
C    -2.1    2.8    3.2
H    -3.4    3.6    1.9
H    -2.2    3.8    3.7
H    -1.0    2.6    3.1
H    -2.4    2.0    3.9
