          35
 sphere cut out from bulk 
C     1.3    2.8    1.4
C     1.1    1.6    2.2
O     1.9    0.9    2.6
H     2.2    2.6    0.7
H     1.6    3.6    2.0
H     0.5    3.1    0.7
N    -0.3    1.4    2.5
C    -0.9    0.6    3.5
C    -0.4    1.1    4.9
O     0.4    2.0    5.0
H    -0.9    2.1    2.2
H    -1.9    0.8    3.5
C    -0.8   -1.0    3.3
C     0.6   -1.7    3.4
C     1.3   -1.6    4.8
N     2.5   -2.4    5.0
C     3.7   -2.1    4.5
N     4.0   -0.8    4.2
N     4.6   -3.1    4.4
H    -1.1   -1.1    2.3
H    -1.5   -1.4    4.0
H     1.3   -1.4    2.7
H     0.4   -2.8    3.2
H     0.6   -1.9    5.6
H     1.6   -0.6    5.0
H     2.3   -3.4    5.1
H     4.8   -0.7    3.6
H     3.2   -0.2    3.8
H     5.5   -2.8    4.1
N    -1.1    0.7    6.0
C    -2.2   -0.2    6.1
H    -0.8    1.1    6.9
H    -2.8   -0.0    7.0
H    -1.9   -1.3    6.2
H    -2.9   -0.1    5.3
