          35
 sphere cut out from bulk 
C    -0.9   -0.6    0.1
C    -0.6   -0.3    1.5
O     0.6   -0.2    1.9
H    -0.5   -1.6   -0.2
H    -0.3    0.1   -0.6
H    -1.9   -0.5   -0.2
N    -1.7   -0.0    2.3
C    -1.8    0.2    3.7
C    -1.1    1.4    4.3
O    -1.6    2.0    5.3
H    -2.6   -0.1    1.8
H    -2.9    0.5    3.9
C    -1.5   -1.1    4.6
C    -0.1   -1.4    4.9
C     0.1   -2.8    5.6
N    -0.2   -3.9    4.8
C    -1.5   -4.6    4.8
N    -1.6   -5.5    3.8
N    -2.5   -4.4    5.6
H    -2.0   -1.9    4.1
H    -2.1   -0.9    5.5
H     0.3   -0.7    5.5
H     0.5   -1.4    4.0
H    -0.5   -2.8    6.5
H     1.1   -2.9    5.9
H     0.3   -4.0    3.9
H    -2.4   -6.1    3.9
H    -0.8   -6.2    3.7
H    -2.4   -3.6    6.2
N     0.1    1.8    3.8
C     0.9    2.9    4.4
H     0.5    1.1    3.1
H     1.6    3.2    3.6
H     1.5    2.6    5.3
H     0.2    3.7    4.7
