          35
 sphere cut out from bulk 
C    -0.3    0.1   -0.5
C     0.0    0.3    0.9
O     1.2    0.4    1.4
H    -1.2    0.6   -0.9
H    -0.5   -1.0   -0.7
H     0.6    0.3   -1.1
N    -1.0    0.3    1.8
C    -2.5    0.2    1.6
C    -2.9   -1.0    0.7
O    -3.6   -0.8   -0.3
H    -0.7    0.5    2.8
H    -2.9    0.0    2.6
C    -3.1    1.6    1.1
C    -2.7    2.8    1.9
C    -3.3    2.8    3.4
N    -2.9    4.0    4.0
C    -3.2    4.2    5.4
N    -4.5    3.7    5.8
N    -2.4    4.9    6.1
H    -4.2    1.4    1.1
H    -2.8    1.7    0.1
H    -3.1    3.7    1.4
H    -1.6    2.9    1.9
H    -2.8    1.9    3.9
H    -4.3    2.6    3.3
H    -2.0    4.4    3.9
H    -4.8    4.0    6.7
H    -5.2    3.7    5.1
H    -2.8    5.1    7.0
N    -2.5   -2.2    1.2
C    -1.8   -2.6    2.3
H    -2.8   -2.9    0.5
H    -2.1   -2.0    3.2
H    -0.7   -2.4    2.2
H    -1.9   -3.7    2.5
