          35
 sphere cut out from bulk 
C     0.3    0.1    0.3
C     0.1   -0.1    1.8
O     1.1   -0.2    2.6
H     1.0    1.0    0.1
H    -0.6    0.2   -0.3
H     0.9   -0.8   -0.1
N    -1.1   -0.1    2.2
C    -1.5   -0.3    3.6
C    -1.5   -1.8    4.0
O    -2.6   -2.4    4.1
H    -1.9   -0.1    1.5
H    -0.7    0.2    4.2
C    -2.9    0.4    3.9
C    -3.3    0.4    5.4
C    -2.3    1.2    6.3
N    -2.9    1.2    7.7
C    -2.2    1.9    8.7
N    -2.8    1.7    9.9
N    -1.1    2.6    8.6
H    -3.6   -0.1    3.3
H    -2.8    1.4    3.5
H    -3.4   -0.6    5.7
H    -4.3    0.9    5.5
H    -2.2    2.2    5.9
H    -1.3    0.7    6.3
H    -3.3    0.4    8.0
H    -2.3    2.3   10.6
H    -3.8    1.8    9.9
H    -0.7    2.6    7.6
N    -0.3   -2.3    4.2
C    -0.1   -3.7    4.5
H     0.5   -1.7    4.0
H     0.7   -3.8    5.3
H     0.3   -4.2    3.5
H    -1.0   -4.2    4.7
