          35
 sphere cut out from bulk 
C    -0.5   -0.8    0.1
C    -0.4   -0.4    1.6
O     0.7   -0.7    2.2
H    -1.5   -0.5   -0.3
H    -0.4   -1.9    0.0
H     0.3   -0.3   -0.4
N    -1.4    0.2    2.2
C    -1.7    0.6    3.6
C    -1.4    2.1    3.9
O    -2.1    2.6    4.8
H    -2.2    0.4    1.5
H    -2.8    0.6    3.6
C    -1.1   -0.4    4.6
C    -0.5    0.1    5.9
C     0.8    0.9    5.8
N     1.8    0.2    5.0
C     3.0    0.8    4.6
N     3.5    1.8    5.5
N     3.7    0.6    3.5
H    -0.4   -1.1    4.1
H    -2.0   -1.0    4.9
H    -0.3   -0.8    6.5
H    -1.2    0.7    6.5
H     1.2    1.0    6.8
H     0.6    1.9    5.5
H     1.4   -0.3    4.2
H     4.4    2.0    5.3
H     3.3    1.6    6.5
H     3.2   -0.0    2.9
N    -0.5    2.9    3.2
C     0.6    2.5    2.4
H    -0.5    3.9    3.6
H     1.5    3.1    2.7
H     0.4    2.7    1.3
H     0.9    1.5    2.5
