          35
 sphere cut out from bulk 
C    -0.1   -0.7    0.3
C    -0.3   -0.6    1.8
O     0.7   -0.6    2.6
H     1.0   -0.8    0.1
H    -0.5    0.1   -0.2
H    -0.6   -1.6   -0.1
N    -1.6   -0.3    2.3
C    -2.8   -0.2    1.5
C    -3.8    0.6    2.4
O    -3.6    0.7    3.6
H    -1.6   -0.2    3.3
H    -2.6    0.3    0.6
C    -3.4   -1.6    1.1
C    -4.1   -2.4    2.3
C    -3.1   -3.0    3.3
N    -3.8   -3.9    4.2
C    -3.0   -4.7    5.1
N    -3.9   -5.4    5.9
N    -1.8   -4.8    5.3
H    -2.7   -2.2    0.6
H    -4.2   -1.4    0.4
H    -4.6   -3.3    1.8
H    -4.8   -1.8    2.8
H    -2.6   -2.1    3.9
H    -2.3   -3.5    2.8
H    -4.7   -3.6    4.5
H    -3.3   -6.1    6.5
H    -4.6   -5.9    5.5
H    -1.3   -4.1    4.7
N    -4.8    1.2    1.7
C    -5.8    1.9    2.3
H    -4.8    1.1    0.7
H    -6.8    1.5    2.1
H    -5.8    3.0    2.0
H    -5.6    1.9    3.4
