          35
 sphere cut out from bulk 
C    -3.3    2.8   -0.3
C    -2.3    2.0    0.4
O    -1.4    1.3   -0.1
H    -4.0    3.3    0.3
H    -3.9    2.2   -1.0
H    -2.8    3.6   -0.9
N    -2.4    2.0    1.8
C    -1.5    1.2    2.6
C    -2.4    0.8    3.9
O    -3.1    1.6    4.4
H    -3.1    2.5    2.3
H    -1.2    0.3    2.0
C    -0.3    2.0    3.0
C     0.8    1.2    3.9
C     1.4    0.0    3.2
N     2.3   -0.7    4.0
C     2.8   -1.9    3.7
N     3.8   -2.4    4.6
N     2.5   -2.6    2.7
H    -0.6    2.9    3.6
H     0.2    2.3    2.1
H     0.3    0.9    4.8
H     1.6    1.9    4.2
H     1.9    0.4    2.2
H     0.6   -0.7    2.9
H     3.0   -0.1    4.6
H     4.1   -3.3    4.4
H     3.5   -2.2    5.6
H     2.0   -2.2    2.0
N    -2.1   -0.5    4.4
C    -2.7   -1.0    5.6
H    -1.5   -1.1    3.9
H    -2.0   -1.3    6.3
H    -3.4   -1.9    5.3
H    -3.4   -0.2    6.0
