          35
 sphere cut out from bulk 
C    -0.7   -1.2    0.3
C    -0.6   -0.7    1.7
O     0.5   -0.6    2.3
H    -1.6   -1.1   -0.2
H    -0.4   -2.2    0.2
H     0.1   -0.6   -0.3
N    -1.8   -0.4    2.3
C    -2.0   -0.0    3.7
C    -1.2    1.3    4.1
O    -0.5    1.3    5.1
H    -2.6   -0.5    1.7
H    -3.0    0.3    3.8
C    -1.7   -1.1    4.7
C    -2.4   -2.5    4.4
C    -1.4   -3.7    4.3
N    -0.4   -3.4    3.2
C     0.3   -4.4    2.6
N     1.3   -3.9    1.7
N     0.2   -5.7    2.8
H    -2.0   -0.8    5.7
H    -0.6   -1.2    4.8
H    -2.9   -2.4    3.4
H    -3.1   -2.7    5.2
H    -1.9   -4.6    4.1
H    -0.9   -3.8    5.3
H     0.0   -2.5    3.2
H     1.9   -4.6    1.5
H     1.7   -3.0    1.9
H    -0.5   -6.0    3.4
N    -1.3    2.4    3.2
C    -2.1    2.6    2.1
H    -0.7    3.1    3.5
H    -2.2    3.6    1.9
H    -3.1    2.1    2.2
H    -1.7    2.2    1.1
