          35
 sphere cut out from bulk 
C    -0.2   -1.4    0.2
C    -0.5   -0.1    0.9
O     0.1    1.0    0.7
H     0.9   -1.4    0.0
H    -0.7   -1.3   -0.8
H    -0.5   -2.3    0.7
N    -1.5   -0.1    1.9
C    -2.6   -1.0    2.0
C    -2.3   -2.4    2.6
O    -3.0   -3.4    2.5
H    -1.7    0.9    2.2
H    -3.3   -0.5    2.8
C    -3.5   -1.2    0.7
C    -3.7    0.1   -0.0
C    -4.4    1.2    0.8
N    -4.3    2.6    0.2
C    -3.5    3.6    0.7
N    -2.3    3.1    1.3
N    -3.7    4.8    0.7
H    -4.5   -1.6    1.0
H    -3.0   -1.9    0.1
H    -4.3   -0.1   -0.9
H    -2.7    0.5   -0.4
H    -4.0    1.3    1.8
H    -5.5    1.0    0.8
H    -5.2    3.0   -0.2
H    -1.7    3.9    1.6
H    -1.7    2.5    0.7
H    -4.7    5.0    0.4
N    -1.2   -2.4    3.4
C    -0.7   -3.5    4.1
H    -0.7   -1.5    3.5
H    -1.4   -4.3    3.9
H    -0.7   -3.4    5.2
H     0.3   -3.8    3.8
