          35
 sphere cut out from bulk 
C    -2.0    0.6   -0.1
C    -1.8   -0.1    1.2
O    -0.9    0.2    2.0
H    -1.1    0.5   -0.7
H    -2.0    1.7    0.1
H    -2.9    0.3   -0.7
N    -2.8   -1.0    1.5
C    -2.8   -1.9    2.7
C    -3.1   -1.3    4.0
O    -4.0   -1.8    4.7
H    -3.5   -1.1    0.8
H    -3.6   -2.6    2.5
C    -1.5   -2.8    2.7
C    -1.6   -3.9    3.8
C    -1.1   -3.5    5.2
N    -1.1   -4.6    6.2
C    -2.3   -4.9    6.8
N    -2.1   -6.1    7.6
N    -3.5   -4.3    6.8
H    -0.6   -2.2    2.9
H    -1.4   -3.3    1.7
H    -0.9   -4.8    3.5
H    -2.6   -4.3    3.9
H    -1.7   -2.7    5.6
H    -0.1   -3.1    5.1
H    -0.5   -5.3    6.0
H    -3.0   -6.2    8.2
H    -1.3   -6.1    8.2
H    -3.5   -3.6    6.1
N    -2.4   -0.2    4.4
C    -2.6    0.5    5.6
H    -1.7    0.1    3.7
H    -2.7    1.5    5.5
H    -1.7    0.4    6.3
H    -3.4    0.0    6.1
