          35
 sphere cut out from bulk 
C    -0.3   -0.4    2.2
C    -1.2   -0.1    3.4
O    -0.8   -0.1    4.5
H    -0.8   -0.8    1.3
H     0.5   -1.0    2.5
H     0.2    0.6    1.8
N    -2.5    0.3    3.1
C    -3.2    0.5    1.8
C    -3.4   -0.8    1.0
O    -2.7   -1.0   -0.0
H    -3.0    0.5    3.9
H    -4.2    0.8    2.1
C    -2.6    1.7    1.0
C    -2.1    2.9    1.7
C    -3.0    3.5    2.9
N    -4.4    3.6    2.6
C    -5.3    2.7    3.1
N    -5.0    2.1    4.3
N    -6.5    2.3    2.5
H    -3.5    1.9    0.3
H    -1.9    1.3    0.3
H    -2.0    3.7    0.9
H    -1.1    2.7    2.1
H    -2.6    4.5    3.1
H    -2.8    2.9    3.7
H    -4.7    4.0    1.7
H    -4.6    2.7    5.0
H    -5.8    1.6    4.7
H    -6.5    2.7    1.6
N    -4.3   -1.7    1.5
C    -5.1   -1.6    2.7
H    -4.3   -2.5    0.9
H    -5.8   -2.4    2.6
H    -5.6   -0.6    2.7
H    -4.5   -1.7    3.6
