          35
 sphere cut out from bulk 
C     0.2   -2.1    0.5
C    -0.0   -1.6    1.9
O     0.9   -1.1    2.6
H    -0.6   -2.9    0.2
H     1.2   -2.4    0.4
H     0.0   -1.2   -0.2
N    -1.3   -1.7    2.4
C    -1.7   -1.2    3.7
C    -3.0   -1.8    4.3
O    -3.1   -2.0    5.5
H    -2.0   -2.1    1.8
H    -0.9   -1.6    4.4
C    -1.6    0.3    3.9
C    -2.5    1.1    2.9
C    -2.0    2.6    2.7
N    -1.1    2.7    1.5
C     0.0    2.0    1.3
N     1.0    2.0    2.3
N     0.2    1.4    0.1
H    -0.6    0.6    3.7
H    -1.9    0.6    4.9
H    -3.5    1.2    3.3
H    -2.5    0.7    1.9
H    -1.4    2.9    3.6
H    -2.8    3.3    2.6
H    -1.7    2.7    0.6
H     1.4    1.1    2.4
H     0.7    2.5    3.1
H     1.1    1.1    0.0
N    -4.1   -2.0    3.5
C    -4.3   -1.9    2.0
H    -4.8   -2.4    4.0
H    -3.8   -0.9    1.7
H    -5.4   -1.7    1.9
H    -4.0   -2.7    1.4
