          35
 sphere cut out from bulk 
C    -0.9    2.5    1.4
C    -0.8    1.5    2.5
O     0.2    0.8    2.6
H     0.0    3.0    1.2
H    -1.7    3.2    1.6
H    -1.2    1.9    0.5
N    -1.8    1.5    3.4
C    -2.1    0.5    4.5
C    -1.1    0.3    5.7
O    -1.5   -0.0    6.8
H    -2.5    2.1    3.2
H    -3.0    1.0    5.1
C    -2.7   -0.8    4.0
C    -1.7   -1.8    3.3
C    -2.2   -2.3    2.0
N    -2.5   -1.3    1.0
C    -1.7   -0.9   -0.0
N    -0.3   -1.1    0.2
N    -2.1   -0.3   -1.1
H    -3.5   -0.6    3.3
H    -3.2   -1.3    4.8
H    -1.5   -2.6    4.0
H    -0.7   -1.3    3.1
H    -3.1   -2.9    2.1
H    -1.4   -3.0    1.6
H    -3.5   -1.2    0.8
H     0.2   -0.7   -0.6
H     0.0   -0.8    1.1
H    -3.1   -0.3   -1.2
N     0.2    0.4    5.4
C     1.2    0.1    6.4
H     0.5    0.5    4.4
H     2.2    0.6    6.0
H     1.4   -1.0    6.5
H     0.9    0.6    7.3
