          35
 sphere cut out from bulk 
C    -0.5   -0.3    0.1
C     0.1    0.1    1.5
O     1.2   -0.3    1.8
H     0.1   -1.1   -0.3
H    -0.5    0.5   -0.6
H    -1.5   -0.7    0.2
N    -0.6    0.9    2.3
C    -2.0    1.4    2.1
C    -2.2    2.2    0.8
O    -1.3    3.0    0.5
H    -0.2    1.1    3.2
H    -2.7    0.5    2.1
C    -2.4    2.2    3.3
C    -2.3    1.6    4.7
C    -1.1    1.8    5.5
N     0.1    1.2    5.0
C     0.4   -0.2    5.3
N     1.6   -0.6    4.8
N    -0.5   -0.8    6.1
H    -3.4    2.6    3.1
H    -1.7    3.1    3.3
H    -2.5    0.5    4.6
H    -3.2    2.0    5.3
H    -1.2    1.5    6.6
H    -0.8    2.9    5.6
H     1.0    1.7    5.0
H     1.7   -1.6    4.9
H     1.6   -0.4    3.8
H    -0.2   -1.8    6.2
N    -3.3    2.0    0.2
C    -3.7    2.7   -1.0
H    -3.9    1.2    0.5
H    -4.7    3.2   -0.9
H    -3.8    2.0   -1.9
H    -2.9    3.4   -1.2
