          35
 sphere cut out from bulk 
C    -1.3    0.9    2.6
C    -1.3   -0.1    3.7
O    -0.3   -0.3    4.4
H    -0.4    0.8    2.0
H    -1.3    1.9    3.0
H    -2.2    0.8    1.9
N    -2.5   -0.7    4.0
C    -2.6   -1.7    5.1
C    -2.2   -3.1    4.6
O    -3.1   -4.0    4.3
H    -3.2   -0.6    3.3
H    -1.9   -1.3    5.9
C    -4.0   -1.7    5.7
C    -4.5   -0.3    6.2
C    -5.4    0.5    5.3
N    -5.7    1.9    5.6
C    -4.8    2.9    5.4
N    -5.2    4.1    5.9
N    -3.6    2.8    4.8
H    -4.1   -2.4    6.5
H    -4.8   -2.0    4.9
H    -3.6    0.3    6.5
H    -5.0   -0.4    7.2
H    -6.4   -0.0    5.2
H    -5.0    0.5    4.2
H    -6.3    2.0    6.4
H    -6.1    4.3    5.8
H    -4.5    4.8    5.7
H    -3.4    1.8    4.7
N    -0.9   -3.2    4.5
C    -0.3   -4.4    4.0
H    -0.3   -2.4    4.7
H     0.6   -4.8    4.7
H     0.1   -4.3    3.0
H    -1.0   -5.2    4.0
