          35
 sphere cut out from bulk 
C    -0.9    0.2   -1.2
C    -0.3    1.0   -0.1
O     0.7    1.7   -0.4
H    -0.4    0.4   -2.2
H    -2.0    0.4   -1.4
H    -0.8   -0.9   -1.0
N    -0.8    1.0    1.1
C    -2.2    0.6    1.5
C    -2.5   -0.8    1.1
O    -1.7   -1.7    1.4
H    -0.3    1.6    1.7
H    -2.2    0.6    2.6
C    -3.2    1.7    1.1
C    -2.8    3.1    1.6
C    -2.0    3.9    0.6
N    -1.3    5.1    1.2
C    -0.2    4.9    2.1
N     0.5    3.7    1.9
N     0.1    5.7    3.0
H    -4.2    1.4    1.6
H    -3.4    1.7    0.0
H    -2.3    3.0    2.5
H    -3.8    3.7    1.9
H    -2.6    4.3   -0.2
H    -1.3    3.3    0.1
H    -1.9    5.9    1.4
H     1.3    3.8    2.5
H     0.7    3.4    1.0
H    -0.6    6.5    3.1
N    -3.8   -1.1    0.6
C    -4.2   -2.4    0.2
H    -4.3   -0.2    0.3
H    -4.3   -2.5   -0.9
H    -5.2   -2.6    0.7
H    -3.5   -3.1    0.6
