          35
 sphere cut out from bulk 
C    -3.9    0.1    0.4
C    -2.7    0.7    1.2
O    -1.8    1.4    0.7
H    -3.4   -0.6   -0.4
H    -4.4    0.9   -0.1
H    -4.6   -0.5    1.0
N    -2.8    0.5    2.5
C    -1.7    0.9    3.4
C    -1.4   -0.3    4.4
O    -2.3   -1.1    4.6
H    -3.4   -0.2    2.9
H    -0.8    1.0    2.8
C    -2.0    2.2    4.2
C    -2.0    3.5    3.5
C    -0.7    3.8    2.6
N     0.5    3.4    3.3
C     1.3    2.3    3.0
N     1.6    2.1    1.7
N     1.8    1.6    4.0
H    -1.2    2.2    5.0
H    -2.9    2.0    4.8
H    -2.1    4.3    4.2
H    -2.8    3.5    2.8
H    -0.7    4.8    2.3
H    -0.8    3.1    1.7
H     0.5    3.6    4.3
H     1.7    1.1    1.4
H     1.0    2.6    1.0
H     2.6    1.0    3.6
N    -0.2   -0.3    5.0
C     0.1   -1.3    6.0
H     0.5    0.4    4.7
H     0.2   -2.3    5.5
H    -0.6   -1.3    6.8
H     1.1   -1.0    6.4
