          35
 sphere cut out from bulk 
C    -0.6   -0.8   -0.3
C    -0.3   -0.6    1.2
O     0.8   -0.8    1.6
H     0.3   -1.0   -0.8
H    -1.1    0.2   -0.7
H    -1.3   -1.6   -0.4
N    -1.3   -0.1    2.0
C    -2.7   -0.1    1.8
C    -3.4    1.1    2.5
O    -4.6    1.0    2.8
H    -1.0   -0.2    3.0
H    -2.8    0.1    0.7
C    -3.4   -1.4    2.0
C    -4.6   -1.7    1.1
C    -5.1   -3.1    1.1
N    -4.1   -4.1    0.6
C    -3.5   -4.0   -0.7
N    -2.4   -4.8   -0.7
N    -3.9   -3.4   -1.7
H    -3.6   -1.6    3.1
H    -2.6   -2.2    1.8
H    -4.4   -1.3    0.1
H    -5.5   -1.1    1.5
H    -6.0   -3.2    0.4
H    -5.4   -3.5    2.0
H    -3.4   -4.4    1.4
H    -2.1   -4.9   -1.7
H    -2.4   -5.7   -0.3
H    -4.7   -2.8   -1.5
N    -2.6    2.1    2.7
C    -3.1    3.4    3.3
H    -1.6    2.1    2.4
H    -4.1    3.2    3.6
H    -3.0    4.2    2.6
H    -2.5    3.6    4.2
