          35
 sphere cut out from bulk 
C    -0.1    0.5   -0.1
C     0.0    0.2    1.4
O     1.1    0.2    2.0
H     0.9    0.7   -0.5
H    -0.7    1.4   -0.3
H    -0.6   -0.3   -0.6
N    -1.2   -0.1    2.1
C    -2.5   -0.2    1.6
C    -3.5    0.5    2.6
O    -4.4   -0.2    3.1
H    -1.0   -0.3    3.1
H    -2.6    0.5    0.7
C    -2.9   -1.6    1.2
C    -2.6   -2.7    2.2
C    -3.2   -4.0    1.8
N    -2.9   -5.1    2.7
C    -1.6   -5.7    2.6
N    -1.4   -6.6    3.7
N    -0.8   -5.4    1.7
H    -2.4   -1.9    0.2
H    -4.0   -1.6    0.9
H    -3.1   -2.4    3.2
H    -1.6   -2.8    2.4
H    -2.8   -4.3    0.8
H    -4.3   -4.0    1.8
H    -3.2   -5.0    3.7
H    -0.6   -7.2    3.6
H    -2.2   -7.2    4.0
H     0.0   -6.0    1.7
N    -3.3    1.8    2.9
C    -2.4    2.7    2.3
H    -4.0    2.1    3.5
H    -1.4    2.6    2.7
H    -2.7    3.8    2.5
H    -2.3    2.6    1.2
