          35
 sphere cut out from bulk 
C    -1.4    0.5   -0.4
C    -1.0    0.1    1.0
O     0.2   -0.3    1.2
H    -0.7    1.1   -0.9
H    -2.4    1.1   -0.5
H    -1.6   -0.5   -1.0
N    -1.8    0.2    2.0
C    -3.1    0.9    2.2
C    -4.2    0.5    1.2
O    -5.0    1.3    0.8
H    -1.4   -0.0    2.9
H    -3.5    0.5    3.1
C    -3.0    2.5    2.4
C    -2.4    3.3    1.3
C    -2.4    4.8    1.6
N    -1.8    5.5    0.5
C    -1.9    6.9    0.4
N    -3.2    7.4    0.7
N    -0.8    7.6    0.1
H    -2.4    2.6    3.3
H    -4.0    2.8    2.6
H    -2.9    3.1    0.3
H    -1.3    3.0    1.1
H    -1.9    5.0    2.6
H    -3.4    5.1    1.7
H    -0.8    5.3    0.4
H    -3.3    8.4    0.4
H    -3.9    6.8    0.4
H    -1.1    8.6   -0.1
N    -4.2   -0.8    0.8
C    -5.1   -1.4   -0.1
H    -3.4   -1.4    1.2
H    -5.9   -0.6   -0.3
H    -5.6   -2.3    0.3
H    -4.6   -1.6   -1.1
