          35
 sphere cut out from bulk 
C    -1.9    1.4   -0.5
C    -1.0    1.3    0.8
O     0.2    1.3    0.8
H    -1.2    1.6   -1.3
H    -2.6    2.1   -0.4
H    -2.3    0.4   -0.7
N    -1.7    1.1    2.0
C    -3.1    0.9    2.2
C    -3.9    1.9    3.1
O    -4.9    2.4    2.7
H    -1.1    1.0    2.8
H    -3.6    1.1    1.2
C    -3.4   -0.6    2.5
C    -4.9   -1.0    2.7
C    -5.8   -0.7    1.6
N    -5.3   -0.9    0.2
C    -4.6   -2.0   -0.3
N    -5.0   -3.2    0.3
N    -3.6   -1.8   -1.1
H    -2.9   -0.9    3.5
H    -2.9   -1.2    1.8
H    -5.3   -0.6    3.6
H    -4.9   -2.1    2.9
H    -6.1    0.4    1.6
H    -6.7   -1.3    1.7
H    -4.9   -0.0   -0.2
H    -4.7   -4.0   -0.2
H    -6.0   -3.2    0.5
H    -3.3   -2.7   -1.5
N    -3.4    2.1    4.4
C    -2.2    1.7    5.0
H    -4.0    2.8    4.8
H    -2.0    0.6    4.9
H    -2.3    1.9    6.1
H    -1.3    2.3    4.7
