          35
 sphere cut out from bulk 
C    -0.8   -2.7    2.0
C    -0.4   -1.3    2.4
O     0.7   -1.1    2.8
H     0.1   -3.3    2.0
H    -1.2   -2.8    1.0
H    -1.5   -3.2    2.7
N    -1.4   -0.3    2.3
C    -2.8   -0.5    2.0
C    -3.2    0.7    1.2
O    -3.7    1.7    1.8
H    -1.1    0.5    2.7
H    -2.9   -1.4    1.4
C    -3.6   -0.7    3.3
C    -5.1   -1.0    3.1
C    -5.5   -2.2    2.1
N    -4.7   -3.4    2.3
C    -4.6   -4.0    3.6
N    -5.7   -4.0    4.3
N    -3.4   -4.5    3.9
H    -3.5    0.2    3.9
H    -3.2   -1.6    3.9
H    -5.6   -0.1    2.7
H    -5.6   -1.2    4.1
H    -5.3   -1.9    1.1
H    -6.5   -2.4    2.2
H    -3.8   -3.5    1.9
H    -5.7   -4.7    5.1
H    -6.6   -4.1    3.8
H    -3.5   -5.1    4.7
N    -3.0    0.7   -0.1
C    -2.3   -0.3   -0.9
H    -3.3    1.6   -0.6
H    -2.3    0.0   -1.9
H    -2.9   -1.3   -0.8
H    -1.3   -0.5   -0.5
