          35
 sphere cut out from bulk 
C    -0.6   -0.3   -1.9
C     0.0   -0.1   -0.5
O     1.2    0.3   -0.5
H     0.2   -0.8   -2.5
H    -0.9    0.6   -2.3
H    -1.4   -1.1   -1.8
N    -0.7   -0.1    0.6
C    -2.2   -0.2    0.8
C    -2.7   -1.7    0.6
O    -2.2   -2.5   -0.2
H    -0.2    0.1    1.4
H    -2.3    0.0    1.9
C    -3.1    0.8    0.0
C    -3.1    2.2    0.6
C    -2.2    3.2    0.0
N    -0.8    2.9    0.2
C    -0.1    3.0    1.4
N     1.3    2.7    1.3
N    -0.8    3.3    2.5
H    -4.1    0.3    0.0
H    -2.8    0.8   -1.0
H    -3.0    2.2    1.7
H    -4.2    2.6    0.5
H    -2.4    4.2    0.5
H    -2.4    3.4   -1.1
H    -0.2    3.0   -0.7
H     1.7    2.7    2.1
H     1.5    1.9    0.6
H    -0.2    3.2    3.3
N    -3.7   -2.0    1.4
C    -4.3   -1.3    2.5
H    -4.1   -3.0    1.3
H    -5.2   -1.9    2.9
H    -4.8   -0.3    2.2
H    -3.6   -1.1    3.3
