          35
 sphere cut out from bulk 
C    -1.9    0.7    0.5
C    -1.4   -0.5    1.3
O    -0.3   -0.9    1.0
H    -1.6    0.7   -0.5
H    -1.5    1.7    1.0
H    -3.0    0.8    0.5
N    -2.2   -0.9    2.3
C    -1.9   -1.8    3.4
C    -1.0   -1.0    4.4
O    -0.3   -0.1    4.1
H    -3.0   -0.3    2.4
H    -2.9   -1.9    3.9
C    -1.5   -3.2    3.1
C    -0.1   -3.5    2.4
C     1.1   -3.0    3.1
N     1.2   -3.4    4.5
C     1.9   -2.7    5.5
N     2.3   -1.4    5.2
N     2.2   -3.2    6.7
H    -2.3   -3.6    2.4
H    -1.6   -3.8    4.0
H    -0.1   -3.2    1.4
H    -0.1   -4.7    2.4
H     1.1   -1.9    3.0
H     2.0   -3.4    2.5
H     1.1   -4.3    4.7
H     2.7   -0.9    6.0
H     1.6   -0.8    4.6
H     2.0   -4.2    6.7
N    -1.1   -1.4    5.7
C    -1.7   -2.5    6.3
H    -0.4   -0.9    6.3
H    -1.9   -2.3    7.4
H    -1.1   -3.4    6.2
H    -2.7   -2.8    5.9
