          35
 sphere cut out from bulk 
C     1.9   -2.4    0.4
C     1.8   -0.9    0.8
O     2.3   -0.0    0.2
H     3.0   -2.7    0.3
H     1.5   -2.5   -0.6
H     1.4   -3.1    1.1
N     1.1   -0.7    2.0
C     1.1    0.6    2.7
C     0.8    0.5    4.2
O     1.5    1.0    5.0
H     1.0   -1.5    2.6
H     2.1    1.0    2.6
C     0.1    1.6    1.9
C     0.2    3.0    2.4
C    -0.6    3.4    3.7
N    -0.3    4.7    4.2
C     0.9    5.1    4.8
N     1.8    4.2    5.1
N     1.1    6.4    5.0
H    -0.9    1.2    2.0
H     0.4    1.5    0.9
H    -0.1    3.7    1.6
H     1.3    3.3    2.5
H    -0.3    2.6    4.5
H    -1.6    3.2    3.5
H    -0.9    5.4    3.8
H     2.5    4.5    5.7
H     1.5    3.2    5.2
H     0.4    7.0    4.7
N    -0.3   -0.3    4.5
C    -0.8   -0.4    5.8
H    -0.9   -0.6    3.7
H    -1.3   -1.4    5.9
H    -1.4    0.4    6.1
H     0.1   -0.5    6.5
