          35
 sphere cut out from bulk 
C     0.5    0.3    0.1
C     0.4    0.4    1.6
O     1.3    0.7    2.3
H    -0.4    0.0   -0.5
H     1.3   -0.4   -0.1
H     0.9    1.3   -0.3
N    -0.9    0.2    2.0
C    -1.3    0.3    3.5
C    -0.9   -0.9    4.3
O    -1.7   -1.6    4.9
H    -1.6   -0.1    1.4
H    -0.7    1.2    3.8
C    -2.8    0.7    3.6
C    -3.7   -0.4    2.9
C    -5.0   -0.6    3.7
N    -4.7   -1.2    5.0
C    -5.6   -1.8    5.8
N    -6.9   -1.5    5.5
N    -5.3   -2.7    6.7
H    -2.9    1.7    3.2
H    -3.0    0.7    4.7
H    -3.2   -1.3    2.8
H    -4.0   -0.0    1.9
H    -5.7   -1.2    3.1
H    -5.5    0.4    3.8
H    -3.7   -1.5    5.1
H    -7.5   -1.9    6.3
H    -7.1   -0.5    5.4
H    -4.3   -2.9    6.7
N     0.5   -1.1    4.4
C     1.1   -2.2    5.1
H     1.1   -0.5    3.8
H     1.6   -2.9    4.4
H     0.3   -2.7    5.6
H     1.8   -1.8    5.8
