          35
 sphere cut out from bulk 
C    -0.3    1.2   -0.1
C    -0.8    0.4    1.1
O    -0.9   -0.8    1.2
H    -0.9    0.9   -0.9
H     0.7    0.8   -0.3
H    -0.3    2.3    0.0
N    -1.2    1.2    2.2
C    -1.7    0.7    3.5
C    -3.1    1.3    3.8
O    -3.3    1.9    4.8
H    -1.1    2.2    2.1
H    -1.8   -0.4    3.2
C    -0.7    0.8    4.6
C    -0.2    2.2    4.8
C     1.3    2.4    4.5
N     1.7    3.8    4.2
C     1.3    4.5    3.1
N     1.3    5.8    3.2
N     1.0    3.9    1.9
H     0.1    0.1    4.4
H    -1.2    0.5    5.5
H    -0.3    2.5    5.9
H    -0.8    3.0    4.3
H     1.5    1.9    3.6
H     1.9    2.0    5.2
H     1.6    4.4    5.1
H     1.3    6.3    2.2
H     2.0    6.2    3.8
H     1.0    2.9    2.0
N    -4.1    1.0    2.9
C    -4.1    0.3    1.7
H    -5.0    1.5    3.2
H    -3.4   -0.5    1.7
H    -3.9    0.9    0.8
H    -5.1   -0.2    1.6
