          35
 sphere cut out from bulk 
C     0.1   -0.1    0.0
C     0.1   -0.0    1.5
O     1.1    0.1    2.2
H    -0.9   -0.2   -0.4
H     0.6   -1.0   -0.2
H     0.6    0.7   -0.4
N    -1.2   -0.0    2.1
C    -1.5   -0.1    3.5
C    -1.2    1.3    4.3
O    -2.1    1.8    5.0
H    -2.0   -0.1    1.5
H    -2.6   -0.2    3.6
C    -0.9   -1.3    4.3
C    -1.3   -1.5    5.7
C    -0.4   -0.7    6.7
N    -0.8   -0.8    8.1
C    -0.6   -2.0    8.8
N    -1.3   -2.0   10.1
N     0.1   -3.0    8.3
H     0.2   -1.2    4.2
H    -1.2   -2.2    3.7
H    -1.3   -2.5    6.0
H    -2.3   -1.1    5.8
H    -0.3    0.3    6.5
H     0.6   -1.1    6.7
H    -1.7   -0.3    8.3
H    -1.0   -2.7   10.7
H    -1.2   -1.1   10.6
H     0.2   -3.7    9.0
N     0.0    1.8    4.1
C     0.4    3.0    4.8
H     0.7    1.3    3.5
H     1.1    3.6    4.2
H     1.0    2.8    5.7
H    -0.5    3.6    5.1
