          35
 sphere cut out from bulk 
C     0.4   -0.8   -0.1
C     0.2   -0.8    1.4
O     0.9   -1.5    2.1
H     0.2   -1.8   -0.5
H     1.4   -0.5   -0.3
H    -0.3   -0.1   -0.6
N    -0.8   -0.0    1.9
C    -1.3    0.1    3.2
C    -1.0    1.5    3.9
O    -1.9    2.2    4.3
H    -1.3    0.5    1.2
H    -2.4    0.2    3.1
C    -1.1   -1.0    4.2
C    -1.7   -2.3    3.8
C    -1.6   -3.4    4.9
N    -2.3   -3.1    6.1
C    -2.1   -3.8    7.3
N    -2.9   -3.4    8.3
N    -1.3   -4.8    7.5
H    -1.5   -0.7    5.2
H     0.0   -1.2    4.4
H    -1.3   -2.7    2.9
H    -2.8   -2.1    3.6
H    -0.5   -3.6    5.1
H    -1.9   -4.4    4.5
H    -3.2   -2.7    6.0
H    -2.7   -3.9    9.2
H    -3.0   -2.4    8.4
H    -0.8   -5.1    6.6
N     0.3    1.9    4.0
C     1.6    1.3    3.5
H     0.4    2.9    4.4
H     1.5    0.2    3.5
H     2.4    1.6    4.2
H     1.9    1.7    2.5
