          35
 sphere cut out from bulk 
C     0.0   -1.5   -0.6
C     0.6   -0.8    0.6
O     1.8   -0.4    0.6
H     0.8   -1.6   -1.4
H    -0.9   -1.0   -1.0
H    -0.3   -2.5   -0.3
N    -0.1   -0.6    1.7
C    -1.5   -1.0    1.9
C    -2.2    0.2    2.5
O    -1.7    0.9    3.4
H     0.3   -0.0    2.4
H    -2.0   -1.2    1.0
C    -1.7   -2.2    2.9
C    -1.0   -3.5    2.4
C    -1.0   -4.6    3.5
N    -0.3   -5.8    3.0
C     0.9   -5.9    2.5
N     1.9   -5.2    3.2
N     1.2   -6.6    1.5
H    -2.7   -2.3    3.1
H    -1.2   -1.9    3.9
H    -0.0   -3.3    2.0
H    -1.6   -3.9    1.5
H    -2.0   -4.8    3.8
H    -0.4   -4.2    4.4
H    -0.9   -6.4    2.4
H     2.7   -4.9    2.7
H     1.6   -4.5    3.9
H     2.2   -6.7    1.3
N    -3.5    0.4    2.1
C    -4.4    1.5    2.6
H    -3.9   -0.2    1.4
H    -4.7    2.2    1.8
H    -3.8    2.0    3.4
H    -5.3    1.1    3.1
