          35
 sphere cut out from bulk 
C     0.5    1.1    0.6
C    -0.1    0.7    1.9
O     0.6    0.6    2.9
H    -0.3    1.6   -0.1
H     0.8    0.2    0.1
H     1.3    1.8    0.8
N    -1.4    0.4    2.0
C    -2.6    0.5    1.1
C    -2.2   -0.1   -0.3
O    -1.6   -1.1   -0.4
H    -1.7    0.0    3.0
H    -3.3   -0.2    1.5
C    -3.2    1.9    1.2
C    -2.4    3.1    0.9
C    -3.1    4.5    1.1
N    -3.5    4.7    2.5
C    -4.7    4.2    3.1
N    -5.8    4.2    2.2
N    -4.9    3.9    4.3
H    -3.6    2.0    2.2
H    -4.2    1.9    0.6
H    -2.0    3.1   -0.1
H    -1.5    3.1    1.6
H    -4.0    4.5    0.5
H    -2.5    5.3    0.8
H    -2.8    4.7    3.2
H    -6.7    4.0    2.7
H    -5.9    5.0    1.6
H    -4.0    3.8    4.8
N    -2.8    0.6   -1.3
C    -2.7    0.1   -2.7
H    -3.3    1.4   -1.2
H    -2.2    0.9   -3.4
H    -3.6   -0.1   -3.1
H    -2.0   -0.7   -2.7
