          35
 sphere cut out from bulk 
C    -1.0   -0.8   -0.3
C    -0.5   -0.9    1.1
O     0.4   -1.8    1.4
H    -2.0   -1.0   -0.4
H    -0.5   -1.6   -0.9
H    -0.8    0.2   -0.8
N    -1.0   -0.0    2.0
C    -2.0    1.0    1.9
C    -3.4    0.3    1.5
O    -3.8   -0.5    2.3
H    -0.7   -0.3    3.0
H    -2.2    1.3    2.9
C    -1.5    2.3    1.2
C    -0.3    2.9    1.8
C    -0.5    3.4    3.3
N    -1.6    4.3    3.5
C    -1.6    5.6    3.1
N    -2.9    6.2    3.2
N    -0.7    6.3    2.6
H    -2.3    3.0    1.2
H    -1.3    2.1    0.1
H     0.0    3.8    1.2
H     0.6    2.2    1.8
H     0.5    3.9    3.6
H    -0.6    2.5    4.0
H    -2.5    3.8    3.6
H    -2.8    7.2    3.1
H    -3.3    6.0    4.2
H     0.2    5.7    2.4
N    -4.1    0.7    0.5
C    -3.9    1.6   -0.7
H    -5.0    0.2    0.4
H    -4.7    1.5   -1.4
H    -2.9    1.4   -1.2
H    -3.9    2.7   -0.4
