          35
 sphere cut out from bulk 
C     0.1   -0.4    1.5
C    -0.6    0.7    2.3
O     0.0    1.3    3.2
H     1.1   -0.5    1.8
H     0.1   -0.2    0.4
H    -0.4   -1.4    1.6
N    -1.9    0.9    2.0
C    -2.8    0.2    1.1
C    -3.7    1.2    0.5
O    -4.9    1.3    0.7
H    -2.3    1.6    2.6
H    -2.2   -0.2    0.3
C    -3.5   -1.0    1.7
C    -3.9   -1.0    3.2
C    -5.2   -0.2    3.6
N    -6.3   -1.0    3.0
C    -7.6   -0.4    2.7
N    -7.5    0.8    2.2
N    -8.6   -1.1    3.0
H    -2.9   -1.9    1.6
H    -4.4   -1.2    1.1
H    -3.1   -0.5    3.8
H    -3.9   -2.0    3.6
H    -5.2    0.8    3.1
H    -5.3   -0.1    4.7
H    -6.5   -1.9    3.5
H    -8.4    1.2    1.8
H    -6.7    1.0    1.6
H    -9.5   -0.7    2.6
N    -3.2    2.1   -0.5
C    -1.8    2.1   -0.9
H    -3.8    2.8   -0.8
H    -1.1    2.5   -0.1
H    -1.7    2.9   -1.7
H    -1.4    1.2   -1.3
