          35
 sphere cut out from bulk 
C    -2.5   -1.6   -0.1
C    -2.9   -0.6    1.0
O    -4.0   -0.0    0.9
H    -1.5   -2.0    0.1
H    -2.5   -1.1   -1.1
H    -3.2   -2.4   -0.1
N    -2.0   -0.3    2.0
C    -2.0    0.6    3.1
C    -3.2    0.5    4.1
O    -2.9    0.7    5.3
H    -1.1   -0.9    1.9
H    -1.1    0.3    3.7
C    -1.8    2.1    2.7
C    -3.1    2.8    2.1
C    -2.8    4.3    1.7
N    -2.4    5.1    2.9
C    -1.9    6.4    2.9
N    -1.4    6.8    1.6
N    -2.0    7.1    3.9
H    -1.0    2.1    2.0
H    -1.5    2.6    3.6
H    -3.9    2.8    2.9
H    -3.5    2.3    1.2
H    -3.6    4.7    1.2
H    -1.9    4.3    1.0
H    -2.9    4.9    3.8
H    -1.3    7.8    1.5
H    -1.8    6.3    0.8
H    -1.6    8.0    3.8
N    -4.4    0.1    3.7
C    -5.5   -0.0    4.6
H    -4.5    0.0    2.6
H    -6.1    0.9    4.7
H    -5.2   -0.3    5.5
H    -6.2   -0.8    4.2
