          35
 sphere cut out from bulk 
C    -0.4   -1.2   -0.8
C    -0.0   -0.4    0.5
O     1.1   -0.2    0.7
H     0.5   -1.8   -1.1
H    -0.6   -0.4   -1.6
H    -1.3   -1.8   -0.7
N    -1.0    0.0    1.3
C    -2.5   -0.1    1.2
C    -2.9   -1.6    1.1
O    -3.6   -2.1    0.2
H    -0.7    0.6    2.1
H    -2.9    0.2    2.2
C    -3.2    0.7    0.1
C    -2.9    2.1    0.2
C    -3.5    2.9   -1.0
N    -3.3    4.4   -0.9
C    -4.0    5.2   -0.1
N    -3.6    6.5   -0.1
N    -5.0    4.9    0.7
H    -4.2    0.5    0.1
H    -2.9    0.2   -0.9
H    -1.8    2.3    0.1
H    -3.2    2.5    1.1
H    -4.6    2.7   -1.0
H    -3.2    2.6   -1.9
H    -2.4    4.7   -1.1
H    -4.2    7.1    0.5
H    -3.4    6.9   -1.0
H    -5.2    3.9    0.7
N    -2.5   -2.5    2.2
C    -1.7   -2.1    3.4
H    -2.8   -3.4    2.1
H    -0.6   -2.0    3.1
H    -1.9   -2.9    4.1
H    -2.1   -1.2    3.8
