          35
 sphere cut out from bulk 
C    -1.4   -1.4    1.8
C    -1.4   -0.5    3.0
O    -1.0   -0.9    4.1
H    -0.7   -2.2    1.9
H    -1.2   -0.8    0.9
H    -2.5   -1.8    1.7
N    -1.8    0.8    2.9
C    -2.6    1.4    1.9
C    -2.4    2.9    1.9
O    -3.3    3.7    2.3
H    -1.8    1.3    3.8
H    -2.3    1.0    0.9
C    -4.1    1.0    2.0
C    -4.8    1.2    3.4
C    -5.3   -0.1    3.9
N    -4.2   -1.1    4.1
C    -4.4   -2.5    4.1
N    -3.3   -3.2    4.3
N    -5.6   -3.1    4.0
H    -4.2   -0.0    1.6
H    -4.7    1.6    1.2
H    -5.6    1.9    3.3
H    -4.1    1.6    4.1
H    -6.0   -0.6    3.2
H    -5.9    0.0    4.8
H    -3.4   -0.8    4.6
H    -3.4   -4.2    4.6
H    -2.4   -2.7    4.5
H    -6.3   -2.5    4.0
N    -1.2    3.4    1.4
C    -0.1    2.6    0.8
H    -1.1    4.4    1.5
H     0.2    1.8    1.5
H     0.7    3.2    0.7
H    -0.4    2.2   -0.1
