          35
 sphere cut out from bulk 
C    -0.3    0.0    0.1
C    -0.5   -0.6    1.5
O     0.5   -0.8    2.2
H     0.8    0.1   -0.1
H    -0.8    1.0   -0.0
H    -0.7   -0.6   -0.7
N    -1.7   -0.8    1.9
C    -3.0   -0.6    1.2
C    -3.8    0.7    1.8
O    -4.9    0.9    1.4
H    -1.8   -1.2    2.9
H    -2.7   -0.2    0.2
C    -3.9   -1.8    1.0
C    -4.0   -2.7    2.3
C    -4.6   -2.0    3.5
N    -4.2   -2.7    4.8
C    -2.9   -2.5    5.3
N    -2.7   -3.4    6.4
N    -2.1   -1.7    4.7
H    -3.5   -2.4    0.2
H    -4.9   -1.4    0.7
H    -3.0   -3.1    2.5
H    -4.6   -3.6    2.0
H    -5.7   -2.0    3.5
H    -4.2   -1.0    3.6
H    -4.6   -3.6    5.0
H    -1.8   -3.2    6.8
H    -3.4   -3.5    7.0
H    -1.2   -1.7    5.2
N    -3.1    1.4    2.8
C    -3.7    2.5    3.4
H    -2.2    1.0    3.1
H    -3.1    3.4    3.4
H    -3.9    2.2    4.5
H    -4.7    2.7    2.9
