          35
 sphere cut out from bulk 
C     0.8   -1.0    0.4
C     0.5   -1.3    1.9
O     1.1   -2.1    2.5
H     1.8   -0.6    0.3
H     0.1   -0.3   -0.1
H     0.8   -2.0   -0.1
N    -0.6   -0.5    2.4
C    -0.9   -0.6    3.8
C    -1.3   -2.0    4.3
O    -0.9   -2.2    5.5
H    -1.1    0.1    1.8
H    -0.1   -0.3    4.4
C    -2.1    0.4    4.0
C    -2.6    0.5    5.5
C    -3.8   -0.5    5.7
N    -4.2   -0.7    7.1
C    -4.1   -1.9    7.8
N    -3.3   -2.8    7.2
N    -4.9   -2.0    8.8
H    -2.9    0.2    3.3
H    -1.7    1.4    3.8
H    -1.8    0.2    6.2
H    -2.9    1.5    5.7
H    -3.6   -1.5    5.3
H    -4.7   -0.1    5.2
H    -4.8   -0.0    7.5
H    -3.2   -3.6    7.8
H    -2.4   -2.5    6.8
H    -4.7   -2.9    9.3
N    -2.0   -2.9    3.6
C    -2.5   -2.8    2.3
H    -2.1   -3.8    4.1
H    -1.8   -3.0    1.5
H    -3.0   -1.8    2.1
H    -3.3   -3.5    2.2
