          35
 sphere cut out from bulk 
C    -0.5    1.1   -0.3
C    -0.1    0.0    0.7
O     1.1   -0.4    0.7
H     0.4    1.5   -0.8
H    -1.0    1.9    0.2
H    -1.2    0.8   -1.1
N    -1.1   -0.5    1.4
C    -2.5   -0.2    1.4
C    -2.9    1.1    2.1
O    -4.0    1.6    1.9
H    -0.8   -1.3    2.0
H    -2.9   -0.1    0.4
C    -3.3   -1.4    2.0
C    -4.8   -1.3    2.1
C    -5.5   -1.3    0.7
N    -6.9   -1.2    0.8
C    -7.7   -1.8   -0.1
N    -9.1   -1.4    0.1
N    -7.3   -2.5   -1.0
H    -2.9   -1.6    3.1
H    -3.0   -2.3    1.5
H    -5.1   -0.5    2.7
H    -5.2   -2.2    2.6
H    -5.3   -2.2    0.1
H    -5.1   -0.5    0.1
H    -7.2   -0.3    1.2
H    -9.7   -1.9   -0.5
H    -9.4   -1.4    1.1
H    -8.0   -3.0   -1.6
N    -2.0    1.5    3.1
C    -2.2    2.7    3.9
H    -1.2    1.0    3.2
H    -1.4    3.5    3.6
H    -2.2    2.5    4.9
H    -3.2    3.1    3.6
