          35
 sphere cut out from bulk 
C     0.7   -0.2    0.3
C     0.5   -0.4    1.8
O     1.4   -0.8    2.5
H     1.0   -1.2   -0.1
H     1.5    0.5    0.1
H    -0.2    0.1   -0.2
N    -0.7    0.1    2.3
C    -0.9    0.2    3.8
C    -2.1   -0.7    4.3
O    -2.6   -0.5    5.4
H    -1.3    0.6    1.7
H    -0.0   -0.3    4.2
C    -1.1    1.6    4.2
C    -2.0    2.5    3.5
C    -3.5    2.0    3.5
N    -4.4    3.0    2.8
C    -5.7    2.8    2.6
N    -6.3    3.7    1.8
N    -6.4    1.8    3.1
H    -0.1    2.1    4.2
H    -1.3    1.6    5.3
H    -1.7    2.6    2.4
H    -2.0    3.5    3.9
H    -3.8    1.9    4.5
H    -3.6    1.1    3.0
H    -3.9    3.5    2.1
H    -7.3    3.6    1.8
H    -6.1    4.7    2.1
H    -5.8    1.1    3.6
N    -2.5   -1.7    3.4
C    -3.5   -2.7    3.8
H    -2.0   -1.8    2.5
H    -3.1   -3.7    3.8
H    -4.3   -2.6    3.0
H    -3.9   -2.4    4.7
