          35
 sphere cut out from bulk 
C    -2.2    0.9   -0.8
C    -1.3    1.1    0.4
O    -0.5    2.1    0.5
H    -1.8    1.4   -1.7
H    -3.2    1.4   -0.6
H    -2.4   -0.1   -1.1
N    -1.4    0.2    1.4
C    -2.3   -0.9    1.6
C    -2.1   -2.1    0.6
O    -3.0   -2.9    0.4
H    -0.8    0.5    2.2
H    -2.0   -1.3    2.6
C    -3.8   -0.4    1.7
C    -4.6   -1.0    2.9
C    -4.9   -2.5    2.9
N    -5.7   -2.9    1.7
C    -6.9   -2.3    1.4
N    -7.8   -2.1    2.5
N    -7.2   -2.0    0.2
H    -4.3   -0.7    0.8
H    -3.8    0.7    1.8
H    -4.0   -0.8    3.9
H    -5.5   -0.4    3.0
H    -5.5   -2.7    3.8
H    -4.0   -3.1    2.9
H    -5.1   -3.0    0.9
H    -8.7   -1.9    2.3
H    -7.7   -2.9    3.2
H    -8.2   -1.7    0.1
N    -0.9   -2.2    0.1
C    -0.5   -3.3   -0.8
H    -0.2   -1.5    0.3
H    -1.4   -3.9   -0.9
H    -0.2   -2.9   -1.8
H     0.4   -3.8   -0.4
