          35
 sphere cut out from bulk 
C    -0.8    0.2   -0.4
C    -0.6   -0.1    1.1
O     0.3   -0.8    1.5
H     0.2    0.6   -0.8
H    -1.5    1.0   -0.7
H    -1.0   -0.7   -0.9
N    -1.5    0.6    1.9
C    -1.5    0.4    3.3
C    -2.7   -0.5    3.6
O    -3.9   -0.1    3.5
H    -2.2    1.1    1.5
H    -0.6   -0.1    3.5
C    -1.6    1.7    4.1
C    -1.7    1.6    5.6
C    -0.5    0.9    6.2
N    -0.6    0.7    7.7
C    -1.3   -0.4    8.2
N    -1.3   -0.3    9.6
N    -1.9   -1.3    7.6
H    -2.5    2.3    3.7
H    -0.7    2.3    3.8
H    -2.6    1.0    5.9
H    -1.8    2.6    6.0
H     0.4    1.5    6.0
H    -0.3   -0.1    5.8
H    -0.5    1.5    8.2
H    -1.7   -1.2   10.0
H    -0.4   -0.1   10.0
H    -2.0   -1.1    6.6
N    -2.5   -1.8    4.1
C    -1.2   -2.5    4.1
H    -3.3   -2.3    4.3
H    -1.4   -3.6    3.9
H    -0.8   -2.5    5.1
H    -0.5   -2.1    3.3
