          35
 sphere cut out from bulk 
C     0.5    0.6    1.9
C    -0.1    0.5    3.2
O     0.1    1.2    4.1
H     0.2   -0.1    1.1
H     1.6    0.5    2.0
H     0.4    1.6    1.5
N    -1.0   -0.6    3.5
C    -1.9   -1.4    2.6
C    -1.2   -2.5    1.8
O    -1.9   -3.2    1.0
H    -1.3   -0.5    4.4
H    -2.4   -2.0    3.4
C    -3.0   -0.7    1.9
C    -2.8    0.2    0.7
C    -2.4   -0.4   -0.7
N    -1.0   -0.7   -0.9
C    -0.4   -1.6   -1.7
N    -1.1   -2.8   -1.8
N     0.7   -1.5   -2.3
H    -3.6   -0.1    2.6
H    -3.7   -1.5    1.5
H    -2.0    1.0    0.9
H    -3.7    0.8    0.5
H    -2.8    0.2   -1.5
H    -2.9   -1.4   -0.8
H    -0.5    0.2   -1.0
H    -0.6   -3.5   -2.3
H    -1.5   -3.1   -0.9
H     1.1   -0.6   -2.3
N     0.1   -2.7    2.0
C     0.9   -3.6    1.2
H     0.6   -2.0    2.6
H     1.8   -4.0    1.8
H     1.4   -3.1    0.3
H     0.3   -4.4    0.9
