          35
 sphere cut out from bulk 
C    -1.4   -0.4    3.3
C    -2.8   -0.7    3.9
O    -2.9   -0.7    5.2
H    -0.7   -0.6    4.0
H    -1.4    0.6    3.0
H    -1.3   -1.1    2.4
N    -3.9   -0.9    3.2
C    -4.1   -1.1    1.7
C    -3.6   -2.4    1.2
O    -2.4   -2.8    1.3
H    -4.7   -1.1    3.8
H    -5.2   -1.2    1.7
C    -3.7    0.1    0.9
C    -4.7    1.2    0.8
C    -5.7    1.1   -0.4
N    -6.4   -0.2   -0.6
C    -7.3   -0.7    0.3
N    -8.1    0.2    0.9
N    -7.3   -2.0    0.5
H    -3.5   -0.3   -0.2
H    -2.7    0.5    1.2
H    -4.2    2.2    0.7
H    -5.3    1.2    1.8
H    -5.1    1.3   -1.3
H    -6.5    1.9   -0.3
H    -5.8   -0.9   -1.0
H    -8.9   -0.2    1.4
H    -8.4    1.0    0.4
H    -8.1   -2.3    1.0
N    -4.5   -3.2    0.5
C    -4.2   -4.4   -0.1
H    -5.5   -2.9    0.6
H    -5.0   -4.7   -0.8
H    -4.0   -5.2    0.6
H    -3.2   -4.3   -0.7
