          35
 sphere cut out from bulk 
C    -0.7    1.7    1.4
C     0.0    0.7    2.3
O     1.1    1.0    2.8
H    -0.1    2.5    1.3
H    -1.7    2.0    1.8
H    -0.9    1.2    0.4
N    -0.6   -0.5    2.5
C    -1.8   -1.0    1.9
C    -2.5   -1.8    3.0
O    -2.0   -2.8    3.6
H    -0.1   -1.1    3.1
H    -2.5   -0.2    1.6
C    -1.6   -1.9    0.7
C    -2.8   -2.4   -0.0
C    -3.3   -3.8    0.5
N    -4.5   -4.2   -0.2
C    -5.8   -3.8    0.3
N    -6.8   -4.1   -0.6
N    -6.0   -3.1    1.3
H    -0.9   -2.8    1.0
H    -0.9   -1.3    0.0
H    -2.6   -2.5   -1.1
H    -3.6   -1.7    0.1
H    -3.4   -3.8    1.5
H    -2.5   -4.6    0.2
H    -4.5   -4.4   -1.2
H    -7.7   -3.9   -0.2
H    -6.8   -5.0   -1.0
H    -5.2   -2.8    1.8
N    -3.8   -1.5    3.4
C    -4.6   -0.3    2.9
H    -4.2   -2.0    4.2
H    -4.2    0.6    3.3
H    -5.6   -0.4    3.4
H    -4.7   -0.3    1.9
