          35
 sphere cut out from bulk 
C     1.4   -2.1    5.8
C     0.5   -1.5    4.7
O     0.8   -1.6    3.5
H     2.4   -1.7    5.7
H     1.5   -3.2    5.6
H     1.1   -1.9    6.8
N    -0.6   -0.8    5.2
C    -1.6   -0.2    4.2
C    -1.1    1.2    3.8
O    -1.5    2.2    4.3
H    -0.7   -0.7    6.2
H    -1.6   -0.9    3.4
C    -2.9   -0.2    4.9
C    -4.1    0.3    4.0
C    -4.2   -0.5    2.6
N    -4.3   -2.0    2.8
C    -5.5   -2.6    3.2
N    -5.3   -4.0    3.2
N    -6.6   -2.1    3.5
H    -2.9    0.5    5.8
H    -3.2   -1.2    5.2
H    -3.9    1.3    3.7
H    -5.0    0.2    4.5
H    -3.3   -0.3    2.0
H    -5.1   -0.1    2.1
H    -3.7   -2.5    2.2
H    -4.5   -4.3    3.7
H    -6.2   -4.4    3.6
H    -6.6   -1.1    3.3
N    -0.1    1.1    2.8
C     0.6    2.3    2.4
H     0.3    0.2    2.6
H     0.7    2.3    1.3
H     1.6    2.4    2.8
H    -0.0    3.2    2.6
