          35
 sphere cut out from bulk 
C    -1.0   -0.5   -0.1
C    -0.1   -0.3    1.1
O     1.0    0.2    0.9
H    -0.4   -0.4   -1.0
H    -1.8    0.2   -0.1
H    -1.5   -1.5   -0.1
N    -0.5   -0.5    2.4
C    -1.7   -1.2    2.9
C    -1.7   -2.7    2.7
O    -1.3   -3.2    1.6
H     0.2   -0.4    3.0
H    -1.7   -1.0    4.0
C    -3.1   -0.6    2.4
C    -3.2    0.9    2.7
C    -4.6    1.4    2.2
N    -4.8    2.8    2.6
C    -5.2    3.2    3.9
N    -5.2    4.5    4.1
N    -5.4    2.2    4.8
H    -3.9   -1.1    3.0
H    -3.2   -0.8    1.4
H    -2.4    1.4    2.2
H    -3.1    1.1    3.8
H    -5.4    0.8    2.7
H    -4.7    1.3    1.2
H    -4.2    3.5    2.1
H    -5.7    4.8    4.9
H    -5.6    5.1    3.3
H    -5.8    2.7    5.6
N    -2.3   -3.5    3.7
C    -2.7   -3.1    5.0
H    -2.2   -4.5    3.4
H    -3.5   -2.3    4.9
H    -1.9   -2.7    5.6
H    -3.1   -4.0    5.5
