          35
 sphere cut out from bulk 
C    -0.8   -0.1   -0.4
C    -0.7   -0.1    1.1
O     0.2    0.6    1.7
H    -1.1    0.9   -0.7
H    -1.6   -0.8   -0.7
H     0.1   -0.4   -0.8
N    -1.5   -0.8    1.9
C    -1.6   -0.8    3.3
C    -1.4   -2.2    3.9
O    -2.3   -2.9    4.4
H    -2.2   -1.4    1.4
H    -0.7   -0.2    3.6
C    -2.8   -0.0    3.9
C    -4.2   -0.6    3.8
C    -4.6   -1.1    2.4
N    -6.0   -1.4    2.4
C    -7.0   -0.5    2.1
N    -8.3   -0.9    2.2
N    -6.6    0.7    1.8
H    -2.7    1.0    3.4
H    -2.5    0.2    5.0
H    -4.9    0.2    4.1
H    -4.3   -1.4    4.5
H    -4.1   -2.0    2.2
H    -4.5   -0.3    1.7
H    -6.3   -2.2    3.0
H    -9.0   -0.2    2.4
H    -8.5   -1.8    2.7
H    -7.5    1.3    1.5
N    -0.2   -2.8    3.8
C     1.0   -2.3    3.1
H    -0.1   -3.8    4.1
H     1.9   -2.7    3.6
H     1.1   -1.2    3.2
H     1.1   -2.6    2.1
