          35
 sphere cut out from bulk 
C     0.1   -1.1    0.2
C     0.3   -0.3    1.5
O     1.5   -0.1    1.8
H     0.9   -1.8    0.0
H     0.1   -0.3   -0.7
H    -0.9   -1.6    0.2
N    -0.7    0.1    2.2
C    -2.2    0.2    1.9
C    -2.9   -1.2    2.0
O    -4.0   -1.3    1.6
H    -0.4    0.7    3.0
H    -2.6    0.8    2.7
C    -2.5    1.0    0.6
C    -3.9    1.5    0.4
C    -4.4    2.6    1.4
N    -4.3    2.3    2.9
C    -5.4    1.7    3.5
N    -6.0    0.7    2.8
N    -5.9    2.0    4.7
H    -2.3    0.3   -0.3
H    -1.8    1.8    0.6
H    -4.6    0.7    0.4
H    -4.0    1.9   -0.6
H    -5.4    3.0    1.1
H    -3.7    3.5    1.3
H    -4.0    3.0    3.4
H    -6.8    0.2    3.3
H    -5.4    0.0    2.3
H    -5.5    2.8    5.0
N    -2.2   -2.2    2.6
C    -2.7   -3.5    2.9
H    -1.2   -1.9    2.9
H    -2.1   -4.3    2.4
H    -3.7   -3.5    2.4
H    -2.8   -3.7    3.9
