          35
 sphere cut out from bulk 
C     0.1   -1.1    2.4
C    -0.5    0.1    1.8
O     0.1    1.0    1.3
H    -0.6   -1.9    2.8
H     0.7   -0.8    3.3
H     0.7   -1.6    1.7
N    -1.9    0.2    1.9
C    -2.7    1.4    1.5
C    -2.3    1.9    0.1
O    -2.2    3.1   -0.1
H    -2.4   -0.5    2.4
H    -3.7    1.0    1.5
C    -2.6    2.5    2.5
C    -3.1    2.2    3.9
C    -3.0    3.4    4.9
N    -3.4    3.0    6.2
C    -3.5    4.0    7.2
N    -3.9    3.4    8.4
N    -3.4    5.2    7.1
H    -3.2    3.4    2.1
H    -1.5    2.9    2.5
H    -2.5    1.4    4.3
H    -4.1    1.8    3.9
H    -3.6    4.2    4.5
H    -1.9    3.8    4.9
H    -3.1    2.1    6.5
H    -4.0    4.1    9.1
H    -4.6    2.7    8.4
H    -3.0    5.5    6.2
N    -2.3    0.9   -0.9
C    -2.6   -0.5   -0.9
H    -2.1    1.4   -1.8
H    -2.9   -0.8   -1.9
H    -3.4   -0.7   -0.2
H    -1.7   -1.1   -0.6
