          35
 sphere cut out from bulk 
C    -0.9   -1.1    0.3
C    -0.6   -0.2    1.5
O     0.3    0.7    1.4
H    -1.7   -1.8    0.5
H     0.1   -1.6    0.0
H    -1.1   -0.5   -0.6
N    -1.4   -0.4    2.5
C    -1.4    0.5    3.7
C    -1.2   -0.3    5.0
O    -1.6    0.1    6.1
H    -2.2   -1.1    2.4
H    -0.5    1.1    3.6
C    -2.6    1.5    3.8
C    -4.0    0.9    3.3
C    -4.7    0.0    4.3
N    -4.1   -1.2    4.8
C    -3.8   -2.3    4.0
N    -4.1   -2.2    2.7
N    -3.1   -3.3    4.4
H    -2.3    2.3    3.1
H    -2.6    1.9    4.8
H    -3.9    0.5    2.4
H    -4.6    1.8    3.2
H    -5.7   -0.2    3.9
H    -4.9    0.6    5.2
H    -3.5   -1.1    5.6
H    -4.1   -3.2    2.3
H    -5.0   -1.8    2.5
H    -2.9   -3.2    5.4
N    -0.4   -1.4    4.9
C    -0.0   -2.3    6.0
H    -0.1   -1.7    4.0
H     1.1   -2.3    6.2
H    -0.4   -3.3    5.8
H    -0.5   -1.9    6.9
