          35
 sphere cut out from bulk 
C    -0.4    1.3   -0.1
C    -0.3    0.3    1.0
O     0.8   -0.0    1.4
H     0.2    2.2    0.1
H    -1.4    1.6   -0.4
H     0.1    0.9   -1.0
N    -1.5   -0.1    1.5
C    -1.8   -1.1    2.5
C    -1.1   -1.1    3.9
O    -1.7   -1.7    4.8
H    -2.3    0.4    1.1
H    -2.9   -0.9    2.8
C    -1.8   -2.5    1.9
C    -0.5   -3.1    1.3
C     0.6   -3.4    2.3
N     1.7   -4.2    1.7
C     2.7   -3.6    0.9
N     3.5   -4.6    0.3
N     2.9   -2.4    0.6
H    -2.6   -2.5    1.1
H    -2.2   -3.2    2.7
H    -0.1   -2.4    0.5
H    -0.8   -4.0    0.8
H     0.2   -3.9    3.1
H     1.0   -2.5    2.6
H     1.4   -5.1    1.5
H     4.3   -4.2   -0.1
H     3.8   -5.3    1.0
H     2.2   -1.8    1.0
N     0.0   -0.4    4.0
C     0.7   -0.4    5.3
H     0.5   -0.1    3.2
H     0.0   -0.3    6.1
H     1.4    0.4    5.3
H     1.3   -1.4    5.5
