          35
 sphere cut out from bulk 
C     0.1    0.6    0.1
C     0.0    0.2    1.6
O     1.1    0.1    2.3
H     0.7    1.5    0.0
H    -0.9    0.7   -0.3
H     0.6   -0.2   -0.4
N    -1.2    0.2    2.2
C    -1.4   -0.1    3.6
C    -1.4   -1.6    3.9
O    -2.4   -2.3    4.1
H    -2.0    0.2    1.6
H    -0.6    0.3    4.1
C    -2.7    0.5    4.1
C    -2.7    2.0    4.0
C    -4.0    2.7    4.5
N    -5.2    2.3    3.8
C    -6.4    3.0    3.7
N    -6.3    4.3    4.3
N    -7.5    2.7    3.1
H    -2.9    0.2    5.1
H    -3.6    0.1    3.5
H    -2.6    2.4    3.0
H    -1.9    2.4    4.6
H    -3.9    3.8    4.5
H    -4.1    2.4    5.6
H    -5.3    1.3    3.6
H    -7.3    4.7    4.3
H    -5.9    4.3    5.2
H    -7.3    1.8    2.5
N    -0.1   -2.2    3.8
C     0.1   -3.6    3.9
H     0.6   -1.6    3.5
H     0.3   -4.0    2.9
H    -0.8   -4.1    4.3
H     0.9   -3.8    4.5
