          35
 sphere cut out from bulk 
C    -2.2    0.9   -0.8
C    -1.8    0.9    0.7
O    -1.6    2.0    1.3
H    -1.6    1.6   -1.4
H    -3.2    1.2   -0.8
H    -2.1   -0.1   -1.2
N    -1.7   -0.3    1.3
C    -1.3   -0.5    2.7
C    -0.3   -1.6    2.7
O    -0.3   -2.5    1.8
H    -1.7   -1.1    0.7
H    -0.8    0.5    3.0
C    -2.5   -0.8    3.6
C    -3.1    0.3    4.4
C    -3.6    1.6    3.7
N    -4.6    1.2    2.7
C    -5.1    2.1    1.7
N    -4.3    3.2    1.4
N    -6.3    2.0    1.2
H    -2.3   -1.6    4.2
H    -3.3   -1.2    2.9
H    -2.4    0.7    5.1
H    -3.9   -0.1    5.0
H    -2.8    2.0    3.2
H    -4.0    2.3    4.4
H    -5.3    0.6    3.0
H    -4.7    3.7    0.7
H    -3.3    3.0    1.4
H    -6.8    1.3    1.6
N     0.5   -1.7    3.8
C     0.6   -0.8    4.9
H     1.1   -2.6    3.8
H     1.5   -1.0    5.4
H    -0.2   -1.1    5.7
H     0.5    0.2    4.6
