          35
 sphere cut out from bulk 
C     0.2    0.2   -0.3
C     0.2   -0.2    1.2
O     1.2   -0.8    1.7
H     1.2    0.8   -0.5
H    -0.6    0.8   -0.6
H     0.3   -0.6   -0.9
N    -0.9    0.2    1.9
C    -1.1   -0.2    3.3
C    -2.1   -1.3    3.3
O    -3.3   -1.1    3.2
H    -1.6    0.6    1.4
H    -0.1   -0.5    3.6
C    -1.5    1.0    4.1
C    -0.5    2.1    4.2
C    -1.1    3.4    4.9
N    -2.1    4.0    4.1
C    -3.4    4.3    4.6
N    -3.9    3.4    5.5
N    -4.0    5.4    4.2
H    -1.8    0.7    5.1
H    -2.5    1.4    3.7
H    -0.1    2.4    3.2
H     0.4    1.8    4.8
H    -0.2    4.1    5.0
H    -1.5    3.2    5.9
H    -1.8    4.8    3.5
H    -4.9    3.6    5.7
H    -3.7    2.4    5.2
H    -4.9    5.5    4.5
N    -1.7   -2.6    3.5
C    -0.3   -3.0    3.8
H    -2.4   -3.3    3.6
H     0.0   -3.0    4.8
H     0.4   -2.5    3.1
H    -0.3   -4.1    3.5
