          35
 sphere cut out from bulk 
C    -2.3    0.6    0.4
C    -0.9    0.8    0.9
O    -0.2    1.8    0.7
H    -2.4   -0.4   -0.1
H    -2.5    1.4   -0.4
H    -3.0    0.7    1.1
N    -0.4   -0.2    1.8
C    -1.1   -1.3    2.3
C    -2.3   -1.0    3.2
O    -3.4   -1.6    3.1
H     0.5    0.0    2.1
H    -1.6   -1.9    1.5
C    -0.1   -2.3    3.0
C    -0.7   -3.6    3.5
C    -1.2   -3.5    5.0
N    -1.8   -4.7    5.5
C    -1.1   -5.9    5.7
N     0.2   -5.7    6.1
N    -1.5   -7.1    5.5
H     0.4   -1.7    3.8
H     0.7   -2.5    2.2
H     0.1   -4.4    3.5
H    -1.5   -3.9    2.9
H    -1.9   -2.7    5.1
H    -0.3   -3.2    5.7
H    -2.7   -4.9    5.1
H     0.6   -6.6    6.3
H     0.4   -5.0    6.8
H    -2.5   -7.1    5.0
N    -2.2    0.0    4.2
C    -1.1    0.9    4.5
H    -3.1    0.1    4.7
H    -0.2    0.3    4.7
H    -1.4    1.3    5.5
H    -0.9    1.6    3.8
