          35
 sphere cut out from bulk 
C    -0.1   -0.1    0.4
C    -0.4   -0.2    1.9
O     0.4   -0.4    2.8
H     1.0    0.1    0.4
H    -0.6    0.7   -0.1
H    -0.3   -1.1   -0.1
N    -1.7   -0.1    2.3
C    -2.9    0.2    1.5
C    -3.1   -0.7    0.2
O    -3.2   -0.3   -0.9
H    -1.9   -0.2    3.3
H    -3.8   -0.1    2.1
C    -3.1    1.6    1.1
C    -3.0    2.6    2.3
C    -4.1    2.4    3.4
N    -5.5    2.3    2.8
C    -6.1    3.5    2.5
N    -7.5    3.2    2.1
N    -5.5    4.6    2.6
H    -4.0    1.8    0.6
H    -2.3    1.9    0.4
H    -3.1    3.6    1.9
H    -2.0    2.5    2.8
H    -4.0    3.2    4.1
H    -4.0    1.4    3.9
H    -6.1    1.6    3.2
H    -7.9    4.0    1.7
H    -7.6    2.4    1.6
H    -6.1    5.4    2.2
N    -3.1   -2.1    0.4
C    -3.0   -2.8    1.7
H    -3.1   -2.6   -0.4
H    -1.9   -2.9    2.0
H    -3.3   -3.9    1.5
H    -3.6   -2.4    2.5
