          35
 sphere cut out from bulk 
C     0.8    1.4    0.1
C     0.5    1.0    1.5
O     1.4    0.6    2.2
H     1.3    0.6   -0.5
H     1.6    2.2    0.1
H    -0.1    1.7   -0.5
N    -0.8    1.1    1.9
C    -1.2    0.7    3.2
C    -2.7    0.3    3.2
O    -3.1   -0.8    3.6
H    -1.5    1.3    1.2
H    -0.7   -0.3    3.4
C    -0.8    1.7    4.3
C    -0.7    1.1    5.7
C     0.4    0.0    5.9
N     1.7    0.4    5.3
C     2.4    1.5    5.8
N     2.3    1.8    7.1
N     3.2    2.2    5.0
H    -1.6    2.5    4.3
H     0.1    2.1    4.0
H    -1.7    0.7    6.0
H    -0.5    1.9    6.4
H     0.1   -0.9    5.4
H     0.5   -0.2    6.9
H     1.7    0.3    4.3
H     2.3    0.9    7.7
H     3.0    2.5    7.4
H     3.1    2.0    4.0
N    -3.5    1.3    2.8
C    -5.0    1.1    2.8
H    -3.1    2.2    2.7
H    -5.2    0.1    2.7
H    -5.4    1.7    1.9
H    -5.4    1.5    3.7
