          35
 sphere cut out from bulk 
C     0.8   -1.1    0.1
C     0.4   -0.5    1.4
O     0.8    0.7    1.7
H     0.4   -0.6   -0.7
H     0.5   -2.2    0.0
H     1.9   -1.1   -0.0
N    -0.3   -1.2    2.2
C    -0.8   -0.8    3.5
C    -0.1   -1.5    4.6
O    -0.4   -2.6    5.0
H    -0.6   -2.2    1.9
H    -0.6    0.3    3.5
C    -2.4   -1.0    3.7
C    -3.1   -2.0    2.8
C    -2.8   -3.5    2.8
N    -1.6   -3.8    1.9
C    -0.8   -4.9    2.2
N    -0.5   -5.1    3.5
N    -0.5   -5.6    1.1
H    -2.9   -0.0    3.5
H    -2.6   -1.3    4.7
H    -3.0   -1.6    1.7
H    -4.2   -1.9    3.0
H    -3.6   -4.1    2.6
H    -2.5   -3.7    3.9
H    -1.9   -3.9    1.0
H     0.3   -5.8    3.6
H    -0.4   -4.3    4.1
H     0.2   -6.3    1.4
N     1.0   -0.9    5.2
C     1.5    0.5    4.9
H     1.5   -1.4    5.9
H     1.1    1.2    5.5
H     1.4    0.7    3.8
H     2.6    0.5    5.1
