          35
 sphere cut out from bulk 
C     0.3    0.1    0.7
C    -0.1   -0.0    2.1
O     0.7   -0.0    3.0
H     1.4    0.1    0.6
H     0.0    1.1    0.3
H    -0.1   -0.6    0.0
N    -1.4   -0.1    2.4
C    -2.6   -0.3    1.6
C    -2.7   -1.7    1.0
O    -1.8   -2.3    0.6
H    -1.6   -0.3    3.4
H    -3.5   -0.2    2.3
C    -2.9    0.7    0.5
C    -2.9    2.2    1.0
C    -3.0    3.2   -0.1
N    -3.0    4.5    0.4
C    -3.3    5.6   -0.4
N    -3.1    6.9    0.2
N    -3.8    5.6   -1.6
H    -3.8    0.5    0.0
H    -2.1    0.6   -0.3
H    -1.9    2.4    1.5
H    -3.6    2.3    1.8
H    -4.0    3.0   -0.6
H    -2.3    3.0   -0.9
H    -2.3    4.7    1.1
H    -3.5    7.6   -0.3
H    -3.5    6.9    1.2
H    -3.7    4.7   -2.0
N    -4.0   -2.3    0.9
C    -5.2   -1.8    1.5
H    -4.0   -3.2    0.5
H    -6.0   -2.5    1.2
H    -5.5   -0.8    1.0
H    -5.2   -1.6    2.6
