          35
 sphere cut out from bulk 
C    -0.8   -0.8   -1.1
C    -0.4   -0.5    0.3
O     0.6   -1.0    0.9
H     0.1   -0.6   -1.8
H    -1.6   -0.2   -1.5
H    -1.0   -1.8   -1.2
N    -1.2    0.4    1.0
C    -1.0    0.7    2.4
C    -2.4    1.1    3.0
O    -3.0    0.4    3.8
H    -2.0    0.8    0.5
H    -0.8   -0.2    2.9
C     0.1    1.7    2.7
C     0.3    2.0    4.1
C     1.5    2.9    4.4
N     1.7    3.2    5.8
C     2.5    4.2    6.4
N     3.0    5.1    5.4
N     2.7    4.4    7.6
H    -0.1    2.7    2.1
H     1.0    1.3    2.2
H     0.5    1.1    4.7
H    -0.6    2.4    4.6
H     1.4    3.9    3.9
H     2.4    2.5    3.9
H     1.5    2.4    6.4
H     3.6    5.8    5.9
H     3.4    4.7    4.6
H     2.1    3.8    8.2
N    -2.8    2.4    2.6
C    -4.1    2.9    3.1
H    -2.2    2.9    2.0
H    -4.7    3.4    2.3
H    -3.9    3.7    3.8
H    -4.7    2.1    3.5
