          35
 sphere cut out from bulk 
C    -0.6    0.2   -0.8
C     0.0    0.1    0.6
O     1.2    0.5    0.8
H    -1.6   -0.2   -0.9
H     0.1   -0.2   -1.5
H    -0.7    1.3   -1.0
N    -0.7   -0.4    1.6
C    -2.2   -0.6    1.7
C    -2.7   -1.8    0.8
O    -3.9   -1.8    0.5
H    -0.2   -0.5    2.5
H    -2.3   -1.0    2.8
C    -3.0    0.7    1.6
C    -3.3    1.5    2.8
C    -2.1    2.4    3.4
N    -1.2    1.6    4.3
C     0.1    1.2    4.0
N     0.8    2.2    3.3
N     0.5    0.1    4.3
H    -4.0    0.3    1.2
H    -2.6    1.3    0.8
H    -3.7    0.9    3.6
H    -4.1    2.2    2.5
H    -2.6    3.2    4.0
H    -1.6    2.8    2.6
H    -1.7    0.9    4.8
H     0.4    3.1    3.1
H     1.4    1.8    2.6
H     1.5   -0.0    4.2
N    -1.8   -2.7    0.6
C    -2.1   -3.9   -0.2
H    -0.8   -2.6    0.9
H    -1.9   -4.8    0.4
H    -1.5   -4.0   -1.1
H    -3.2   -3.9   -0.4
