          35
 sphere cut out from bulk 
C    -1.0    2.0    0.8
C    -0.6    1.0    1.9
O     0.3    1.3    2.7
H    -0.4    2.8    0.8
H    -2.1    2.3    0.9
H    -0.9    1.5   -0.2
N    -1.3   -0.1    2.1
C    -2.4   -0.7    1.2
C    -3.4   -1.4    2.1
O    -3.3   -2.5    2.4
H    -1.0   -0.8    2.8
H    -2.8    0.2    0.7
C    -1.8   -1.6    0.1
C    -2.7   -1.8   -1.1
C    -4.0   -2.5   -0.8
N    -4.8   -2.7   -2.0
C    -6.2   -3.0   -2.1
N    -6.8   -3.1   -0.9
N    -6.8   -3.3   -3.2
H    -1.6   -2.6    0.6
H    -0.9   -1.2   -0.2
H    -2.2   -2.4   -1.9
H    -3.0   -0.8   -1.6
H    -4.7   -1.9   -0.1
H    -3.8   -3.5   -0.3
H    -4.3   -2.9   -2.9
H    -7.7   -3.4   -1.0
H    -6.3   -3.5   -0.1
H    -6.3   -3.1   -4.0
N    -4.4   -0.6    2.6
C    -4.5    0.9    2.5
H    -5.0   -1.1    3.3
H    -3.7    1.4    2.9
H    -5.4    1.2    3.0
H    -4.7    1.2    1.4
