          35
 sphere cut out from bulk 
C    -2.1    1.9    0.2
C    -1.4    1.9    1.5
O    -0.2    1.7    1.6
H    -3.2    2.1    0.2
H    -1.9    0.9   -0.3
H    -1.6    2.7   -0.4
N    -2.3    2.0    2.6
C    -1.9    1.9    4.0
C    -1.0    3.0    4.6
O    -1.3    3.6    5.6
H    -3.2    2.2    2.4
H    -2.9    2.1    4.6
C    -1.4    0.5    4.4
C    -1.0    0.3    5.9
C    -2.2    0.4    6.8
N    -1.9    0.3    8.2
C    -1.5    1.4    9.0
N    -1.7    2.7    8.5
N    -0.9    1.3   10.2
H    -0.5    0.3    3.8
H    -2.1   -0.2    4.1
H    -0.3    1.1    6.2
H    -0.5   -0.6    6.0
H    -2.9   -0.4    6.6
H    -2.8    1.3    6.7
H    -1.5   -0.6    8.6
H    -1.4    3.4    9.1
H    -1.6    2.9    7.5
H    -0.9    0.3   10.5
N     0.1    3.3    3.9
C     1.1    4.3    4.4
H     0.3    2.8    3.1
H     1.9    4.3    3.6
H     1.5    4.0    5.3
H     0.6    5.3    4.5
