          35
 sphere cut out from bulk 
C     0.3   -1.0    0.7
C    -0.1   -0.9    2.1
O     0.6   -1.5    3.0
H     1.4   -1.3    0.6
H     0.3    0.0    0.2
H    -0.3   -1.7    0.1
N    -1.2   -0.3    2.4
C    -2.4   -0.1    1.5
C    -3.1    1.2    1.9
O    -4.2    1.5    1.4
H    -1.6   -0.5    3.4
H    -2.0    0.1    0.5
C    -3.3   -1.3    1.4
C    -4.1   -1.7    2.7
C    -3.3   -2.2    3.9
N    -2.7   -1.1    4.7
C    -1.9   -1.5    5.9
N    -0.8   -2.3    5.5
N    -2.1   -1.1    7.1
H    -2.8   -2.1    1.1
H    -4.1   -1.0    0.7
H    -4.8   -2.5    2.4
H    -4.7   -0.8    3.1
H    -2.4   -2.8    3.5
H    -3.9   -2.9    4.5
H    -3.4   -0.5    5.0
H    -0.2   -2.4    6.3
H    -0.3   -2.1    4.7
H    -3.0   -0.6    7.2
N    -2.5    2.1    2.6
C    -3.0    3.4    3.0
H    -1.5    1.8    3.0
H    -4.0    3.5    2.6
H    -2.4    4.2    2.6
H    -3.0    3.5    4.1
