          35
 sphere cut out from bulk 
C    -0.1   -0.2   -0.3
C     0.2   -0.1    1.2
O     1.3   -0.1    1.7
H    -0.6    0.7   -0.6
H    -0.7   -1.1   -0.5
H     0.9   -0.3   -0.8
N    -0.9   -0.1    2.1
C    -2.3    0.1    1.7
C    -2.6    1.6    1.5
O    -2.1    2.4    2.2
H    -0.7    0.1    3.0
H    -2.4   -0.4    0.7
C    -3.2   -0.6    2.7
C    -3.3   -0.1    4.1
C    -4.3    1.1    4.3
N    -4.5    1.5    5.7
C    -5.2    0.8    6.6
N    -5.1    1.3    7.9
N    -6.0   -0.2    6.4
H    -2.9   -1.7    2.7
H    -4.3   -0.6    2.3
H    -2.3    0.3    4.5
H    -3.6   -0.9    4.8
H    -5.3    0.8    3.9
H    -4.0    2.0    3.7
H    -3.7    2.0    6.0
H    -5.7    0.9    8.5
H    -5.1    2.3    8.0
H    -5.9   -0.6    5.5
N    -3.6    1.9    0.6
C    -4.3    1.0   -0.3
H    -3.8    2.9    0.6
H    -5.0    1.6   -0.9
H    -4.9    0.3    0.2
H    -3.6    0.5   -1.0
