          35
 sphere cut out from bulk 
C    -0.2   -0.4   -0.1
C    -0.5   -0.1    1.3
O     0.1   -0.7    2.3
H    -1.0   -0.1   -0.8
H    -0.1   -1.5   -0.2
H     0.7    0.1   -0.4
N    -1.5    0.8    1.5
C    -1.9    1.5    2.8
C    -0.8    2.5    3.1
O     0.3    2.5    2.6
H    -1.9    1.2    0.7
H    -2.8    2.1    2.5
C    -2.2    0.4    3.9
C    -1.9    0.7    5.3
C    -0.4    0.6    5.7
N     0.3   -0.6    5.2
C    -0.1   -1.8    5.7
N    -0.5   -1.9    7.1
N    -0.1   -2.9    5.1
H    -1.8   -0.5    3.6
H    -3.3    0.3    3.8
H    -2.4   -0.0    6.0
H    -2.3    1.7    5.7
H    -0.3    0.8    6.8
H     0.2    1.5    5.2
H     0.4   -0.6    4.2
H    -0.6   -2.8    7.4
H     0.1   -1.3    7.7
H     0.0   -2.8    4.1
N    -1.2    3.5    3.9
C    -0.3    4.5    4.5
H    -2.1    3.4    4.3
H    -0.8    5.5    4.4
H     0.6    4.5    3.8
H     0.0    4.3    5.5
