          35
 sphere cut out from bulk 
C    -1.0    2.7    1.2
C    -0.8    1.3    1.9
O     0.3    0.7    1.8
H    -0.8    2.6    0.2
H    -0.3    3.4    1.6
H    -2.0    3.1    1.4
N    -1.8    0.8    2.6
C    -1.8   -0.5    3.2
C    -3.2   -0.9    3.4
O    -4.2   -0.1    3.6
H    -2.7    1.3    2.7
H    -1.2   -1.1    2.6
C    -1.1   -0.4    4.6
C    -0.8   -1.7    5.3
C     0.1   -1.6    6.5
N     1.4   -1.3    6.2
C     2.5   -1.3    7.0
N     2.3   -1.9    8.3
N     3.8   -1.0    6.7
H    -1.7    0.3    5.3
H    -0.1    0.2    4.4
H    -0.4   -2.4    4.6
H    -1.8   -2.1    5.6
H     0.1   -2.6    7.1
H    -0.4   -0.8    7.2
H     1.6   -0.7    5.4
H     3.1   -1.9    8.8
H     1.4   -1.6    8.7
H     3.8   -0.8    5.7
N    -3.4   -2.3    3.3
C    -4.7   -2.9    3.5
H    -2.6   -2.9    3.1
H    -4.7   -3.6    4.3
H    -5.0   -3.5    2.5
H    -5.4   -2.2    3.7
