          35
 sphere cut out from bulk 
C    -0.6    1.0    0.1
C    -0.9    1.0    1.6
O    -0.1    1.5    2.4
H     0.3    1.6   -0.1
H    -1.4    1.6   -0.4
H    -0.6    0.0   -0.3
N    -2.0    0.3    2.1
C    -3.0   -0.4    1.3
C    -4.4   -0.1    1.9
O    -5.2   -1.0    2.1
H    -2.1    0.3    3.1
H    -3.0    0.1    0.3
C    -2.7   -1.9    1.1
C    -2.1   -2.6    2.3
C    -3.0   -2.7    3.6
N    -2.4   -3.6    4.5
C    -2.9   -3.7    5.8
N    -4.3   -3.5    6.0
N    -2.1   -4.0    6.8
H    -2.0   -2.0    0.3
H    -3.6   -2.4    0.8
H    -1.1   -2.2    2.6
H    -1.9   -3.6    2.0
H    -4.0   -3.0    3.3
H    -3.1   -1.7    4.0
H    -1.4   -3.6    4.6
H    -4.7   -3.9    6.8
H    -4.8   -3.7    5.1
H    -2.6   -4.2    7.7
N    -4.8    1.2    2.0
C    -4.1    2.4    1.7
H    -5.7    1.3    2.4
H    -4.8    3.2    1.6
H    -3.6    2.3    0.7
H    -3.3    2.7    2.4
