          35
 sphere cut out from bulk 
C    -0.9   -0.1   -0.2
C    -0.7   -0.5    1.3
O     0.2   -1.3    1.6
H    -0.6   -1.0   -0.8
H    -0.2    0.7   -0.4
H    -1.9    0.2   -0.4
N    -1.6    0.1    2.1
C    -1.4    0.2    3.6
C    -0.5    1.4    4.0
O     0.3    1.9    3.1
H    -2.1    0.8    1.7
H    -2.4    0.5    4.0
C    -1.0   -1.1    4.3
C     0.5   -1.3    4.6
C     0.8   -2.7    5.1
N     2.3   -2.8    5.4
C     2.9   -4.0    5.8
N     2.0   -4.8    6.6
N     4.1   -4.3    5.6
H    -1.3   -1.9    3.7
H    -1.6   -1.2    5.2
H     0.8   -0.6    5.4
H     1.1   -1.0    3.7
H     0.5   -3.4    4.3
H     0.2   -2.9    6.0
H     2.8   -2.3    4.7
H     2.6   -5.5    7.1
H     1.4   -4.3    7.3
H     4.5   -3.8    4.9
N    -0.6    1.9    5.2
C    -1.4    1.4    6.3
H     0.1    2.7    5.4
H    -1.5    2.3    7.0
H    -0.9    0.6    6.8
H    -2.4    1.1    6.0
