          35
 sphere cut out from bulk 
C    -0.7    0.2   -0.3
C    -0.1   -0.1    1.1
O     1.0   -0.6    1.2
H     0.0    0.8   -0.8
H    -1.7    0.7   -0.3
H    -0.8   -0.8   -0.8
N    -0.9    0.2    2.1
C    -0.6   -0.2    3.5
C    -1.9   -0.3    4.4
O    -2.0   -1.3    5.1
H    -1.9    0.4    1.9
H    -0.2   -1.2    3.5
C     0.5    0.7    4.2
C     0.9    0.2    5.6
C     0.7    1.3    6.7
N    -0.6    1.9    6.7
C    -1.7    1.6    7.4
N    -1.7    0.3    7.8
N    -2.7    2.4    7.7
H     0.1    1.7    4.2
H     1.4    0.6    3.5
H     0.3   -0.7    5.8
H     2.0   -0.1    5.6
H     1.5    2.0    6.5
H     0.9    0.8    7.6
H    -0.5    2.9    6.4
H    -2.6    0.1    8.3
H    -1.5   -0.5    7.1
H    -2.5    3.3    7.5
N    -2.8    0.6    4.4
C    -2.7    2.0    3.9
H    -3.5    0.5    5.1
H    -2.8    2.7    4.8
H    -3.6    2.2    3.3
H    -1.8    2.2    3.4
