          35
 sphere cut out from bulk 
C    -1.9    1.6    5.0
C    -1.3    0.2    4.8
O    -0.6   -0.2    5.7
H    -2.6    1.6    5.9
H    -2.5    2.0    4.1
H    -1.1    2.3    5.2
N    -1.8   -0.4    3.7
C    -1.5   -1.9    3.5
C    -0.5   -2.1    2.4
O    -0.3   -3.3    2.0
H    -2.5   -0.0    3.2
H    -0.9   -2.2    4.5
C    -2.8   -2.7    3.4
C    -3.8   -2.3    2.4
C    -3.4   -2.4    0.9
N    -2.8   -3.6    0.5
C    -3.7   -4.8    0.4
N    -3.0   -6.0    0.3
N    -5.0   -4.8    0.2
H    -3.2   -2.7    4.4
H    -2.5   -3.7    3.2
H    -4.2   -1.2    2.6
H    -4.7   -2.9    2.5
H    -2.5   -1.6    0.7
H    -4.2   -2.1    0.3
H    -1.9   -3.8    0.8
H    -2.2   -6.0    1.0
H    -3.6   -6.8    0.4
H    -5.3   -3.8    0.1
N     0.2   -1.1    1.9
C     1.3   -1.2    0.9
H     0.0   -0.2    2.4
H     1.3   -2.2    0.6
H     2.2   -0.9    1.4
H     1.1   -0.5    0.1
