          35
 sphere cut out from bulk 
C    -0.2   -0.1   -0.2
C    -0.0    0.1    1.3
O     1.1    0.3    1.8
H     0.5    0.4   -0.7
H    -1.2    0.1   -0.6
H    -0.0   -1.2   -0.4
N    -1.1   -0.0    2.1
C    -2.6   -0.0    1.8
C    -3.0   -1.2    0.9
O    -3.8   -1.1    0.0
H    -0.9    0.2    3.1
H    -3.1   -0.2    2.7
C    -3.1    1.3    1.2
C    -4.5    1.6    1.4
C    -5.0    2.9    0.8
N    -6.4    3.1    1.1
C    -7.1    4.2    0.8
N    -6.4    5.4    0.6
N    -8.4    4.2    0.7
H    -2.9    1.3    0.1
H    -2.5    2.1    1.6
H    -4.8    1.6    2.5
H    -5.1    0.8    1.0
H    -4.8    2.9   -0.3
H    -4.4    3.7    1.3
H    -7.0    2.3    1.1
H    -6.9    6.1    0.1
H    -5.4    5.3    0.2
H    -8.8    5.1    0.5
N    -2.3   -2.4    1.2
C    -2.6   -3.6    0.5
H    -1.6   -2.3    1.9
H    -2.8   -4.5    1.2
H    -1.7   -3.9   -0.1
H    -3.4   -3.5   -0.1
