          35
 sphere cut out from bulk 
C     1.0    0.7    0.5
C     0.5   -0.1    1.7
O     1.2   -1.0    2.2
H     1.9    1.3    0.8
H     0.3    1.4    0.1
H     1.3    0.0   -0.3
N    -0.7    0.2    2.2
C    -1.3   -0.3    3.4
C    -1.4   -1.9    3.4
O    -1.2   -2.5    4.4
H    -1.2    1.0    1.8
H    -0.6   -0.2    4.2
C    -2.6    0.3    3.7
C    -3.3   -0.1    5.0
C    -4.3   -1.3    4.8
N    -5.0   -1.7    6.0
C    -6.0   -1.0    6.5
N    -6.4   -1.5    7.8
N    -6.5   -0.0    5.8
H    -3.3    0.2    2.8
H    -2.4    1.4    3.7
H    -3.9    0.7    5.3
H    -2.6   -0.4    5.7
H    -3.8   -2.2    4.4
H    -5.1   -1.0    4.0
H    -4.4   -2.2    6.7
H    -6.4   -2.5    7.9
H    -7.3   -1.1    8.1
H    -7.4    0.3    6.3
N    -1.8   -2.5    2.3
C    -2.1   -2.1    0.9
H    -1.8   -3.6    2.4
H    -1.2   -1.9    0.3
H    -2.7   -2.8    0.4
H    -2.7   -1.1    1.0
