          35
 sphere cut out from bulk 
C    -0.8   -0.8    1.1
C    -0.9    0.4    2.0
O     0.0    0.9    2.5
H    -1.7   -1.4    1.0
H     0.0   -1.4    1.5
H    -0.4   -0.5    0.1
N    -2.2    0.9    2.1
C    -3.4    0.8    1.3
C    -4.1   -0.6    1.4
O    -4.8   -1.1    0.5
H    -2.2    1.8    2.7
H    -4.1    1.5    1.7
C    -3.1    1.1   -0.2
C    -2.2    2.4   -0.4
C    -2.7    3.6    0.2
N    -1.7    4.7    0.4
C    -1.2    5.0    1.6
N    -1.0    4.0    2.5
N    -1.0    6.3    1.9
H    -4.1    1.3   -0.7
H    -2.7    0.3   -0.7
H    -2.0    2.5   -1.5
H    -1.2    2.1    0.0
H    -3.2    3.4    1.2
H    -3.6    4.0   -0.4
H    -1.9    5.5   -0.2
H    -0.6    4.2    3.4
H    -0.5    3.1    2.1
H    -0.4    6.4    2.7
N    -3.9   -1.2    2.6
C    -4.6   -2.5    2.9
H    -3.3   -0.8    3.2
H    -5.2   -2.4    3.8
H    -3.8   -3.3    3.1
H    -5.2   -2.8    2.0
