          35
 sphere cut out from bulk 
C     0.8    1.0    0.4
C    -0.1   -0.0    1.1
O     0.2   -1.2    1.2
H     1.0    1.9    1.1
H     0.4    1.4   -0.5
H     1.7    0.5    0.2
N    -1.3    0.4    1.6
C    -1.8    1.8    1.6
C    -2.8    1.9    2.8
O    -3.3    0.8    3.3
H    -1.9   -0.2    2.1
H    -1.0    2.5    1.8
C    -2.5    2.2    0.3
C    -3.6    1.2   -0.2
C    -5.0    1.3    0.5
N    -5.6    2.6    0.5
C    -6.0    3.2    1.6
N    -6.3    4.6    1.4
N    -6.2    2.8    2.8
H    -1.7    2.3   -0.5
H    -2.9    3.2    0.4
H    -3.2    0.2   -0.2
H    -3.8    1.5   -1.3
H    -4.9    0.9    1.5
H    -5.7    0.6   -0.1
H    -5.4    3.2   -0.3
H    -6.8    5.0    2.2
H    -6.8    4.8    0.5
H    -5.8    1.8    2.9
N    -3.1    3.1    3.3
C    -2.7    4.4    2.8
H    -3.9    3.1    3.9
H    -2.7    5.1    3.6
H    -3.4    4.8    2.1
H    -1.7    4.4    2.4
