          35
 sphere cut out from bulk 
C     2.9    0.3    3.4
C     1.5   -0.2    3.4
O     1.2   -1.4    3.3
H     3.5   -0.1    4.1
H     3.0    1.4    3.5
H     3.3    0.0    2.4
N     0.5    0.8    3.7
C    -0.9    0.5    3.7
C    -1.7    1.8    4.1
O    -2.7    2.1    3.6
H     0.8    1.7    3.6
H    -1.3    0.3    2.7
C    -1.4   -0.7    4.6
C    -0.9   -0.6    6.0
C    -0.7   -2.0    6.6
N     0.5   -2.6    5.9
C     0.9   -3.9    6.2
N     2.0   -4.3    5.4
N     0.4   -4.6    7.2
H    -1.1   -1.6    4.1
H    -2.5   -0.6    4.5
H    -1.6   -0.1    6.7
H     0.0   -0.1    6.1
H    -1.6   -2.7    6.5
H    -0.5   -2.0    7.7
H     0.7   -2.3    5.0
H     2.0   -5.3    5.3
H     2.1   -3.9    4.5
H     0.8   -5.5    7.3
N    -1.0    2.6    5.1
C    -1.7    3.8    5.6
H    -0.3    2.1    5.6
H    -0.9    4.5    5.9
H    -2.3    3.5    6.5
H    -2.4    4.2    4.9
