          35
 sphere cut out from bulk 
C     1.3    0.6    0.8
C     0.8   -0.1    2.0
O     1.6   -0.8    2.7
H     0.6    0.8    0.1
H     2.2    0.1    0.4
H     1.6    1.6    1.2
N    -0.5   -0.0    2.2
C    -1.2   -0.6    3.4
C    -1.6   -2.1    3.2
O    -2.8   -2.4    3.1
H    -1.1    0.5    1.6
H    -0.4   -0.6    4.2
C    -2.4    0.3    3.9
C    -2.0    1.7    4.2
C    -1.2    1.9    5.5
N     0.1    2.6    5.4
C     1.2    2.0    4.8
N     1.6    0.8    5.3
N     1.8    2.6    3.8
H    -2.9   -0.2    4.7
H    -3.1    0.3    3.0
H    -1.4    2.2    3.4
H    -2.9    2.3    4.3
H    -1.0    0.9    6.0
H    -1.8    2.4    6.3
H     0.0    3.5    5.0
H     1.9    0.1    4.7
H     1.1    0.4    6.1
H     2.7    2.1    3.6
N    -0.6   -2.9    3.1
C    -0.7   -4.3    2.8
H     0.4   -2.5    3.1
H    -0.1   -4.9    3.5
H    -0.3   -4.5    1.8
H    -1.8   -4.6    2.9
