          35
 sphere cut out from bulk 
C    -0.7    1.6    2.6
C    -0.4    0.3    2.0
O     0.6   -0.4    2.4
H    -0.9    2.4    1.9
H     0.1    1.9    3.3
H    -1.6    1.6    3.3
N    -1.3   -0.2    1.1
C    -2.5    0.4    0.7
C    -3.6    0.4    1.7
O    -4.3    1.4    1.9
H    -1.0   -1.1    0.7
H    -2.4    1.4    0.4
C    -3.0   -0.3   -0.6
C    -4.4    0.1   -1.2
C    -4.4    1.6   -1.6
N    -3.4    2.0   -2.5
C    -3.4    1.6   -3.9
N    -2.2    2.0   -4.5
N    -4.3    1.0   -4.5
H    -3.1   -1.4   -0.4
H    -2.2   -0.2   -1.4
H    -5.2   -0.0   -0.5
H    -4.6   -0.5   -2.0
H    -4.4    2.2   -0.7
H    -5.4    1.8   -2.1
H    -2.5    2.2   -2.1
H    -2.2    1.9   -5.5
H    -1.9    3.0   -4.3
H    -5.0    0.7   -3.9
N    -3.9   -0.7    2.5
C    -3.2   -1.9    2.6
H    -4.6   -0.5    3.2
H    -2.2   -1.9    3.0
H    -3.1   -2.4    1.6
H    -3.8   -2.6    3.2
