          35
 sphere cut out from bulk 
C    -0.0    1.0   -0.2
C     0.1    0.1    1.0
O     1.2   -0.4    1.4
H    -0.5    1.9   -0.0
H    -0.6    0.5   -1.0
H     1.0    1.2   -0.6
N    -1.0   -0.1    1.7
C    -2.4    0.0    1.3
C    -3.3    0.6    2.5
O    -4.5    0.5    2.4
H    -0.9   -0.8    2.5
H    -2.4    0.8    0.6
C    -3.1   -1.2    0.7
C    -3.0   -2.5    1.5
C    -1.8   -3.4    1.2
N    -1.7   -4.7    1.9
C    -2.5   -5.7    1.4
N    -2.5   -6.8    2.3
N    -3.2   -5.6    0.4
H    -2.6   -1.4   -0.3
H    -4.1   -0.9    0.5
H    -3.9   -3.1    1.3
H    -3.0   -2.3    2.6
H    -0.8   -2.9    1.4
H    -1.8   -3.6    0.1
H    -1.6   -4.6    2.9
H    -2.9   -7.6    2.0
H    -1.5   -7.0    2.7
H    -3.6   -6.5    0.1
N    -2.6    1.1    3.5
C    -3.3    1.8    4.6
H    -1.6    1.2    3.4
H    -4.3    1.6    4.6
H    -3.1    2.9    4.6
H    -2.9    1.4    5.6
