          35
 sphere cut out from bulk 
C    -0.6    1.9   -0.4
C    -0.1    0.6    0.3
O     1.1    0.2    0.3
H     0.3    2.4   -0.8
H    -1.1    2.5    0.2
H    -1.2    1.6   -1.2
N    -1.1   -0.1    1.0
C    -2.5    0.2    1.1
C    -3.0    1.2    2.1
O    -4.1    1.7    2.1
H    -0.7   -1.0    1.4
H    -2.8    0.6    0.1
C    -3.3   -1.1    1.3
C    -3.1   -2.2    0.2
C    -3.8   -3.5    0.5
N    -3.6   -4.6   -0.4
C    -2.4   -5.2   -0.4
N    -2.2   -6.2   -1.4
N    -1.5   -5.0    0.6
H    -4.3   -0.9    1.5
H    -2.9   -1.6    2.3
H    -2.1   -2.4    0.0
H    -3.5   -1.8   -0.7
H    -4.9   -3.3    0.6
H    -3.5   -3.8    1.5
H    -4.0   -4.5   -1.3
H    -1.4   -6.8   -1.3
H    -3.1   -6.7   -1.7
H    -0.7   -5.7    0.5
N    -2.0    1.6    3.0
C    -2.3    2.5    4.1
H    -1.1    1.2    2.9
H    -3.3    2.9    4.0
H    -1.6    3.4    4.0
H    -2.1    2.1    5.0
