          35
 sphere cut out from bulk 
C    -1.5    2.1    0.9
C    -0.4    1.2    1.4
O     0.7    1.7    1.9
H    -1.2    3.1    1.2
H    -2.5    1.9    1.4
H    -1.6    2.0   -0.1
N    -0.6   -0.1    1.4
C    -1.7   -0.9    0.8
C    -2.8   -1.2    1.9
O    -3.8   -1.9    1.5
H     0.2   -0.7    1.7
H    -2.2   -0.2    0.1
C    -1.3   -2.1    0.1
C    -0.8   -3.3    1.0
C    -1.7   -4.5    0.8
N    -1.6   -5.5    1.9
C    -2.2   -5.3    3.1
N    -3.3   -4.6    3.2
N    -1.6   -6.0    4.2
H    -0.5   -1.9   -0.6
H    -2.1   -2.5   -0.5
H    -0.9   -3.0    2.1
H     0.2   -3.5    0.9
H    -1.4   -5.0   -0.1
H    -2.8   -4.2    0.7
H    -0.8   -6.1    2.0
H    -3.6   -4.3    4.1
H    -3.5   -3.9    2.5
H    -2.2   -5.8    5.0
N    -2.6   -0.8    3.1
C    -3.5   -1.0    4.2
H    -1.7   -0.3    3.3
H    -3.8   -0.1    4.8
H    -3.1   -1.7    4.9
H    -4.4   -1.5    3.8
