          35
 sphere cut out from bulk 
C    -0.0    1.8    1.3
C    -0.5    0.7    2.3
O    -0.2    0.7    3.5
H     1.0    2.0    1.5
H    -0.6    2.7    1.5
H    -0.2    1.5    0.2
N    -1.4   -0.2    1.8
C    -2.1   -1.1    2.5
C    -3.1   -1.8    1.5
O    -3.4   -1.3    0.4
H    -1.8   -0.1    0.8
H    -1.4   -1.9    2.9
C    -2.9   -0.5    3.8
C    -3.6    0.8    3.5
C    -3.8    1.6    4.8
N    -3.9    3.0    4.5
C    -3.0    3.9    4.1
N    -1.6    3.5    4.4
N    -3.3    5.0    3.6
H    -2.1   -0.4    4.5
H    -3.6   -1.3    4.2
H    -3.0    1.4    2.8
H    -4.6    0.6    3.0
H    -2.9    1.5    5.4
H    -4.6    1.3    5.4
H    -4.8    3.4    4.2
H    -1.4    2.5    4.4
H    -0.9    4.1    3.9
H    -2.5    5.6    3.4
N    -3.7   -3.0    1.9
C    -3.5   -3.8    3.0
H    -4.3   -3.3    1.2
H    -4.2   -3.5    3.9
H    -2.5   -3.7    3.5
H    -3.6   -4.8    2.8
