          35
 sphere cut out from bulk 
C     1.0   -1.0    0.8
C     0.7   -0.1    1.9
O     1.7    0.4    2.6
H     1.6   -1.9    1.1
H     1.6   -0.4    0.0
H     0.1   -1.4    0.3
N    -0.6    0.1    2.3
C    -1.1    0.8    3.5
C    -0.9    2.4    3.3
O    -1.9    3.1    3.5
H    -1.3   -0.3    1.7
H    -2.1    0.7    3.5
C    -0.5    0.3    4.8
C    -1.5    0.4    6.0
C    -1.6    1.8    6.6
N    -0.4    2.3    7.2
C     0.2    3.5    6.9
N     1.5    3.7    7.5
N    -0.2    4.5    6.1
H     0.5    0.7    5.0
H    -0.3   -0.8    4.7
H    -1.1   -0.3    6.8
H    -2.5    0.1    5.7
H    -2.4    1.8    7.4
H    -2.0    2.5    5.8
H     0.2    1.6    7.6
H     1.8    4.6    7.4
H     1.5    3.4    8.5
H    -1.0    4.2    5.6
N     0.3    2.8    3.0
C     0.6    4.2    2.8
H     1.0    2.1    2.9
H     0.8    4.7    3.8
H    -0.3    4.8    2.4
H     1.4    4.4    2.2
