          35
 sphere cut out from bulk 
C    -0.2    1.1    0.2
C    -0.0    0.5    1.6
O     1.1    0.4    2.1
H    -0.8    0.5   -0.5
H     0.8    1.1   -0.2
H    -0.6    2.1    0.2
N    -1.2    0.1    2.3
C    -2.6    0.0    1.9
C    -2.8   -1.3    1.1
O    -2.5   -2.4    1.7
H    -0.9   -0.3    3.1
H    -3.1   -0.2    2.8
C    -3.2    1.3    1.3
C    -3.0    2.5    2.3
C    -3.5    3.8    1.7
N    -2.9    5.0    2.2
C    -1.6    5.3    1.8
N    -1.0    6.4    2.4
N    -1.1    4.6    0.8
H    -4.3    1.1    1.1
H    -2.8    1.6    0.4
H    -1.9    2.6    2.5
H    -3.5    2.3    3.2
H    -4.6    3.9    1.9
H    -3.4    3.8    0.6
H    -3.1    5.3    3.1
H    -0.0    6.4    2.4
H    -1.5    6.8    3.2
H    -0.2    5.0    0.5
N    -3.1   -1.4   -0.2
C    -3.5   -0.4   -1.2
H    -3.2   -2.4   -0.5
H    -4.4    0.1   -1.0
H    -2.7    0.3   -1.4
H    -3.6   -0.9   -2.2
