          35
 sphere cut out from bulk 
C    -0.1    1.5   -0.2
C    -0.0    1.5    1.3
O     0.9    2.1    1.9
H     0.8    1.8   -0.6
H    -0.9    2.2   -0.5
H    -0.4    0.5   -0.6
N    -0.9    0.7    2.0
C    -2.2    0.3    1.5
C    -3.1    1.6    1.1
O    -3.0    2.6    1.8
H    -0.9    0.9    3.0
H    -2.1   -0.3    0.6
C    -3.0   -0.5    2.6
C    -3.6    0.2    3.8
C    -2.7    0.7    4.9
N    -1.7    1.6    4.5
C    -0.7    2.1    5.4
N     0.1    3.0    4.8
N    -0.5    1.7    6.6
H    -2.3   -1.3    2.9
H    -3.8   -1.0    2.1
H    -4.4   -0.5    4.2
H    -4.2    1.1    3.4
H    -2.2   -0.2    5.3
H    -3.4    1.0    5.8
H    -2.1    2.4    3.9
H     0.9    3.2    5.4
H     0.4    2.8    3.9
H    -1.3    1.1    7.0
N    -4.0    1.4    0.1
C    -4.2    0.3   -0.7
H    -4.5    2.3   -0.0
H    -5.0    0.6   -1.4
H    -4.5   -0.6   -0.2
H    -3.3    0.1   -1.4
