          35
 sphere cut out from bulk 
C    -0.2    0.5   -0.2
C    -0.1    0.3    1.3
O     0.9    0.6    1.9
H     0.0    1.6   -0.4
H    -1.2    0.3   -0.6
H     0.5   -0.1   -0.7
N    -1.2   -0.1    2.0
C    -1.2   -0.5    3.4
C    -2.4   -1.4    3.7
O    -2.3   -2.4    4.4
H    -1.9   -0.5    1.4
H    -0.3   -1.2    3.6
C    -1.1    0.7    4.3
C    -1.0    0.3    5.8
C    -2.1    0.8    6.7
N    -3.5    0.5    6.3
C    -4.2   -0.5    6.9
N    -3.4   -1.7    7.2
N    -5.4   -0.3    7.1
H    -2.0    1.3    4.2
H    -0.3    1.3    4.0
H    -0.0    0.7    6.2
H    -0.9   -0.8    5.9
H    -2.0    1.9    6.7
H    -1.9    0.5    7.8
H    -4.1    1.3    6.2
H    -2.8   -2.0    6.4
H    -4.0   -2.4    7.5
H    -5.9   -1.2    7.4
N    -3.6   -1.0    3.2
C    -4.9   -1.6    3.6
H    -3.6   -0.1    2.8
H    -4.7   -2.6    3.9
H    -5.5   -1.6    2.7
H    -5.3   -1.1    4.4
