          35
 sphere cut out from bulk 
C    -0.5   -0.5    0.5
C    -0.2    0.3    1.8
O     1.0    0.5    2.1
H    -0.0   -1.4    0.5
H    -0.1    0.1   -0.4
H    -1.6   -0.6    0.3
N    -1.2    0.7    2.5
C    -1.1    1.4    3.8
C    -0.4    2.8    3.6
O     0.5    3.1    4.3
H    -2.2    0.5    2.2
H    -2.2    1.7    4.0
C    -0.5    0.6    5.0
C    -1.1   -0.8    5.2
C    -2.6   -0.9    5.5
N    -3.4   -1.0    4.3
C    -4.2    0.0    3.8
N    -4.4   -0.1    2.4
N    -4.6    1.1    4.4
H    -0.7    1.2    5.8
H     0.6    0.6    4.8
H    -0.5   -1.2    6.1
H    -0.8   -1.4    4.3
H    -2.9   -0.1    6.1
H    -2.7   -1.9    6.1
H    -3.0   -1.6    3.6
H    -5.2    0.6    2.1
H    -4.7   -1.1    2.1
H    -4.2    1.2    5.3
N    -0.8    3.6    2.6
C    -2.0    3.5    1.8
H    -0.3    4.5    2.6
H    -2.3    4.5    1.5
H    -2.9    3.0    2.3
H    -1.8    2.9    0.9
