          35
 sphere cut out from bulk 
C     1.0   -1.0    0.7
C     0.6   -0.7    2.1
O     1.4   -0.8    3.0
H     1.8   -0.3    0.4
H     0.2   -0.9   -0.0
H     1.4   -2.0    0.7
N    -0.7   -0.4    2.3
C    -1.2    0.0    3.6
C    -2.5   -0.7    4.0
O    -2.6   -1.3    5.2
H    -1.3   -0.2    1.5
H    -0.5   -0.4    4.3
C    -1.3    1.5    3.8
C    -1.5    2.0    5.3
C    -0.2    1.7    6.2
N     0.9    2.5    5.7
C     2.2    2.0    5.8
N     2.4    0.7    5.5
N     3.2    2.8    6.1
H    -2.1    2.0    3.2
H    -0.4    2.0    3.5
H    -1.8    3.0    5.3
H    -2.3    1.4    5.8
H     0.0    0.7    6.2
H    -0.5    2.0    7.2
H     0.8    3.5    5.9
H     3.4    0.5    5.5
H     1.9    0.3    4.7
H     3.0    3.7    6.4
N    -3.6   -0.7    3.2
C    -3.8   -0.1    1.9
H    -4.4   -1.2    3.6
H    -3.3    0.8    1.8
H    -4.8    0.0    1.7
H    -3.4   -0.8    1.1
