          35
 sphere cut out from bulk 
C    -1.3   -0.3   -0.2
C    -0.7    0.3    1.1
O     0.3    0.9    1.1
H    -1.9    0.5   -0.7
H    -2.0   -1.1   -0.0
H    -0.5   -0.6   -0.8
N    -1.5    0.1    2.2
C    -1.4    0.7    3.5
C    -2.0    2.2    3.4
O    -1.9    2.8    2.4
H    -2.4   -0.4    2.0
H    -2.2    0.2    4.1
C    -0.1    0.5    4.3
C     1.2    1.1    4.0
C     1.2    2.6    3.7
N     0.6    3.4    4.8
C     0.1    4.7    4.8
N    -0.2    5.1    3.5
N     0.1    5.4    5.8
H     0.0   -0.6    4.4
H    -0.4    0.8    5.4
H     1.6    0.7    3.0
H     1.9    0.9    4.8
H     0.6    2.9    2.8
H     2.2    3.0    3.5
H     1.0    3.2    5.7
H    -0.8    6.0    3.5
H    -0.7    4.4    2.9
H    -0.3    6.3    5.7
N    -2.6    2.7    4.5
C    -2.5    2.3    5.9
H    -2.8    3.7    4.4
H    -1.6    2.6    6.4
H    -3.4    2.7    6.4
H    -2.7    1.2    6.0
