          35
 sphere cut out from bulk 
C     0.2   -0.9    0.3
C     0.2   -0.1    1.5
O     1.3    0.3    2.0
H     1.2   -0.9   -0.2
H    -0.6   -0.7   -0.4
H    -0.0   -2.0    0.6
N    -0.9    0.3    2.1
C    -2.4    0.1    1.7
C    -2.7   -1.4    1.4
O    -3.1   -1.7    0.3
H    -0.8    0.9    2.9
H    -2.9    0.4    2.6
C    -2.8    1.1    0.6
C    -4.3    1.2    0.4
C    -5.1    1.7    1.6
N    -4.6    3.0    2.1
C    -4.9    4.2    1.5
N    -4.3    5.3    2.3
N    -5.5    4.4    0.5
H    -2.3    0.7   -0.4
H    -2.4    2.1    0.8
H    -4.7    0.2    0.1
H    -4.5    1.9   -0.5
H    -5.0    1.0    2.4
H    -6.2    1.8    1.3
H    -4.5    3.0    3.1
H    -4.5    6.2    1.8
H    -3.4    5.2    2.6
H    -6.0    3.6    0.1
N    -2.5   -2.3    2.4
C    -2.0   -2.0    3.8
H    -2.7   -3.2    2.1
H    -2.3   -2.9    4.4
H    -2.5   -1.1    4.2
H    -0.9   -1.9    3.8
