          35
 sphere cut out from bulk 
C     1.2    1.0    0.2
C     0.9    0.6    1.6
O     1.8    0.5    2.5
H     1.6    2.1    0.3
H     0.4    1.0   -0.5
H     2.1    0.5   -0.2
N    -0.4    0.2    1.8
C    -0.8   -0.5    3.0
C    -1.5   -1.8    2.6
O    -2.0   -1.9    1.5
H    -1.0    0.0    1.0
H     0.1   -0.7    3.6
C    -1.8    0.3    3.9
C    -1.2    1.4    4.8
C    -0.5    2.6    4.1
N    -1.2    3.2    3.0
C    -2.3    4.0    3.2
N    -2.9    4.4    2.0
N    -2.7    4.3    4.4
H    -2.3   -0.3    4.6
H    -2.6    0.8    3.3
H    -0.5    1.0    5.5
H    -2.0    1.9    5.4
H     0.5    2.2    3.7
H    -0.3    3.4    4.8
H    -1.2    2.6    2.1
H    -3.6    5.1    2.1
H    -2.2    4.6    1.2
H    -3.4    5.0    4.3
N    -1.4   -2.8    3.5
C    -2.1   -4.1    3.3
H    -0.9   -2.6    4.3
H    -2.9   -4.3    4.0
H    -1.4   -4.9    3.3
H    -2.5   -4.0    2.3
