          35
 sphere cut out from bulk 
C    -0.3    0.1   -0.0
C    -0.2    0.3    1.5
O     0.8    0.8    2.0
H    -1.3   -0.2   -0.3
H     0.4   -0.7   -0.3
H    -0.0    1.1   -0.5
N    -1.3   -0.0    2.2
C    -1.3   -0.0    3.7
C    -0.8    1.3    4.3
O     0.0    1.3    5.2
H    -2.0   -0.5    1.8
H    -2.4   -0.1    4.0
C    -0.6   -1.2    4.3
C    -1.1   -2.6    3.9
C    -0.5   -3.8    4.5
N    -0.6   -3.9    6.0
C    -1.8   -4.2    6.6
N    -1.7   -4.1    8.0
N    -2.8   -4.7    5.9
H    -0.6   -1.1    5.4
H     0.5   -1.2    4.0
H    -1.0   -2.7    2.8
H    -2.2   -2.6    4.1
H     0.6   -3.8    4.3
H    -0.9   -4.7    4.1
H    -0.1   -3.2    6.5
H    -2.5   -4.5    8.4
H    -0.8   -4.3    8.4
H    -3.5   -5.0    6.5
N    -1.3    2.5    3.9
C    -2.2    2.7    2.8
H    -0.8    3.3    4.3
H    -2.7    3.7    3.0
H    -3.0    2.0    2.8
H    -1.8    2.7    1.8
