          35
 sphere cut out from bulk 
C    -0.1    1.6   -0.6
C     0.5    0.9    0.6
O     1.7    0.8    0.8
H     0.7    1.6   -1.4
H    -0.2    2.7   -0.3
H    -1.0    1.2   -1.0
N    -0.4    0.2    1.5
C    -1.9    0.2    1.5
C    -2.5   -0.9    0.6
O    -3.7   -1.1    0.7
H     0.1   -0.2    2.2
H    -2.1   -0.2    2.5
C    -2.6    1.6    1.5
C    -3.5    1.9    0.3
C    -4.0    3.3    0.3
N    -2.9    4.3   -0.1
C    -2.0    4.8    0.8
N    -2.5    5.2    2.0
N    -0.8    4.9    0.5
H    -1.8    2.3    1.6
H    -3.2    1.7    2.4
H    -4.4    1.2    0.4
H    -3.0    1.6   -0.6
H    -4.4    3.6    1.2
H    -4.8    3.4   -0.5
H    -2.5    4.1   -0.9
H    -1.9    5.7    2.6
H    -3.5    5.6    2.0
H    -0.2    5.4    1.1
N    -1.7   -1.5   -0.2
C    -2.1   -2.6   -1.1
H    -0.7   -1.4   -0.1
H    -1.8   -2.4   -2.1
H    -3.2   -2.6   -1.1
H    -1.7   -3.6   -0.8
