          35
 sphere cut out from bulk 
C    -1.2   -0.2   -0.5
C    -0.6   -0.1    0.9
O     0.6   -0.3    1.1
H    -0.5   -0.6   -1.2
H    -1.7    0.7   -0.8
H    -2.0   -1.0   -0.5
N    -1.3    0.5    1.9
C    -2.8    0.7    1.9
C    -3.1    2.0    2.7
O    -3.6    3.0    2.2
H    -0.8    0.6    2.8
H    -3.0    1.0    0.9
C    -3.6   -0.5    2.3
C    -5.1   -0.3    2.3
C    -5.7    0.2    1.0
N    -5.2   -0.5   -0.2
C    -5.3   -1.9   -0.4
N    -6.4   -2.5    0.2
N    -4.2   -2.5   -0.9
H    -3.3   -0.8    3.3
H    -3.3   -1.3    1.6
H    -5.4    0.4    3.1
H    -5.6   -1.2    2.6
H    -5.5    1.3    0.8
H    -6.8    0.1    1.1
H    -4.4   -0.1   -0.6
H    -7.3   -2.0    0.1
H    -6.5   -3.5   -0.1
H    -4.4   -3.5   -1.1
N    -2.8    1.9    4.1
C    -3.0    3.0    5.0
H    -2.5    1.0    4.4
H    -2.1    3.2    5.6
H    -3.8    2.7    5.7
H    -3.3    3.9    4.4
