          35
 sphere cut out from bulk 
C    -0.9    1.4    0.3
C    -0.9    1.4    1.8
O    -0.2    2.3    2.4
H    -0.3    2.2   -0.1
H    -1.9    1.5   -0.1
H    -0.5    0.4   -0.1
N    -1.6    0.5    2.5
C    -2.3   -0.7    1.9
C    -3.6   -0.8    2.8
O    -3.7   -1.7    3.7
H    -1.5    0.6    3.5
H    -2.5   -0.5    0.9
C    -1.4   -1.9    2.0
C    -2.1   -3.1    1.3
C    -1.4   -4.5    1.6
N    -1.1   -4.7    3.0
C    -2.1   -5.3    3.9
N    -3.3   -4.7    3.8
N    -1.8   -6.3    4.6
H    -1.2   -2.2    3.0
H    -0.5   -1.7    1.5
H    -2.1   -3.0    0.2
H    -3.1   -3.2    1.6
H    -0.4   -4.5    1.1
H    -1.9   -5.3    1.1
H    -0.2   -5.2    3.2
H    -4.0   -5.0    4.5
H    -3.4   -3.7    3.7
H    -2.5   -6.5    5.3
N    -4.6   -0.0    2.4
C    -4.6    1.1    1.5
H    -5.4   -0.1    3.0
H    -3.9    1.9    1.7
H    -5.6    1.5    1.4
H    -4.4    0.7    0.5
