          35
 sphere cut out from bulk 
C    -5.6    2.4    1.9
C    -4.1    2.1    1.9
O    -3.3    2.6    1.2
H    -5.8    3.4    2.0
H    -6.2    1.8    2.6
H    -5.9    2.1    0.8
N    -3.7    1.2    2.9
C    -2.3    0.8    3.0
C    -2.3   -0.6    3.6
O    -3.1   -1.0    4.4
H    -4.3    0.7    3.5
H    -1.8    0.9    2.1
C    -1.6    1.8    4.0
C    -0.1    1.6    4.1
C     0.7    1.9    2.8
N     2.2    2.0    2.9
C     2.8    3.0    3.7
N     2.2    4.2    3.6
N     3.8    2.6    4.4
H    -2.0    1.7    5.0
H    -1.8    2.8    3.6
H     0.2    0.7    4.5
H     0.3    2.4    4.9
H     0.3    2.9    2.4
H     0.5    1.2    2.0
H     2.6    1.1    3.2
H     1.9    4.5    2.6
H     2.8    5.0    3.9
H     4.3    3.5    4.8
N    -1.2   -1.4    3.2
C    -1.0   -2.7    3.7
H    -0.6   -1.0    2.5
H    -1.8   -3.0    4.4
H    -0.0   -2.8    4.2
H    -1.1   -3.5    2.9
