          35
 sphere cut out from bulk 
C    -0.1    1.1    0.2
C    -0.2    0.3    1.5
O     0.7   -0.4    1.9
H     0.7    1.8    0.3
H    -1.0    1.6   -0.1
H     0.2    0.3   -0.6
N    -1.3    0.6    2.3
C    -1.6   -0.1    3.5
C    -3.0   -0.8    3.6
O    -3.1   -1.9    4.0
H    -2.0    1.2    1.9
H    -0.9   -1.0    3.5
C    -1.3    0.7    4.8
C     0.1    1.2    4.9
C     0.4    2.6    4.1
N     1.6    2.5    3.3
C     2.0    3.5    2.5
N     1.9    4.8    3.0
N     2.4    3.2    1.3
H    -1.5    0.1    5.7
H    -2.0    1.6    4.9
H     0.4    1.4    6.0
H     0.8    0.5    4.5
H     0.5    3.4    4.9
H    -0.5    2.8    3.5
H     1.7    1.6    2.8
H     2.0    4.8    4.0
H     2.3    5.5    2.5
H     2.8    4.1    0.8
N    -4.1   -0.1    3.3
C    -4.2    1.3    2.9
H    -4.9   -0.6    3.4
H    -4.2    1.4    1.8
H    -3.5    2.0    3.4
H    -5.2    1.7    3.2
