          35
 sphere cut out from bulk 
C    -0.4   -3.0    4.1
C    -0.3   -1.6    3.5
O    -0.6   -1.4    2.3
H     0.3   -3.7    3.6
H    -1.4   -3.4    4.0
H    -0.2   -3.1    5.2
N     0.0   -0.6    4.4
C     0.2    0.7    4.0
C     1.6    0.9    3.4
O     2.5    1.3    4.1
H     0.3   -0.9    5.3
H    -0.5    0.9    3.1
C    -0.2    1.7    5.1
C    -0.7    3.1    4.6
C     0.4    4.2    4.5
N     1.5    4.0    3.5
C     1.4    4.3    2.1
N     0.2    4.9    1.7
N     2.3    4.0    1.3
H     0.7    1.8    5.8
H    -1.0    1.3    5.6
H    -1.4    3.5    5.3
H    -1.2    3.0    3.6
H     0.9    4.3    5.5
H    -0.1    5.2    4.3
H     2.2    3.3    3.8
H     0.2    5.0    0.7
H    -0.6    4.6    2.1
H     3.2    3.7    1.7
N     1.7    0.5    2.1
C     3.0    0.6    1.4
H     0.9    0.1    1.7
H     3.8    0.8    2.1
H     3.0    1.3    0.6
H     3.2   -0.4    1.0
