          35
 sphere cut out from bulk 
C     0.2   -1.1    2.0
C    -0.7   -0.4    2.9
O    -1.0   -0.9    4.0
H     1.2   -1.2    2.4
H     0.3   -0.6    1.0
H    -0.2   -2.1    1.9
N    -1.2    0.8    2.5
C    -2.1    1.6    3.3
C    -3.2    2.2    2.4
O    -4.4    1.9    2.6
H    -1.0    1.1    1.6
H    -2.7    0.9    3.9
C    -1.6    2.7    4.3
C    -0.7    2.1    5.4
C     0.8    1.9    5.1
N     1.5    1.4    6.2
C     2.2    0.2    6.3
N     1.7   -0.8    5.4
N     3.2    0.1    7.1
H    -2.4    3.2    4.7
H    -1.0    3.4    3.7
H    -0.8    2.8    6.3
H    -1.2    1.2    5.8
H     1.2    2.9    4.8
H     0.9    1.2    4.3
H     1.9    2.0    6.9
H     2.1   -1.7    5.5
H     0.7   -0.8    5.2
H     3.5   -0.9    7.1
N    -2.9    3.0    1.3
C    -1.6    3.7    1.1
H    -3.7    3.3    0.8
H    -1.5    3.8   -0.0
H    -0.8    3.2    1.5
H    -1.6    4.7    1.5
