          35
 sphere cut out from bulk 
C    -0.3   -0.8    0.7
C    -0.4   -0.2    2.1
O     0.6   -0.1    2.8
H     0.8   -1.0    0.5
H    -0.6   -0.1   -0.1
H    -0.8   -1.7    0.6
N    -1.6    0.2    2.5
C    -2.9    0.2    1.8
C    -3.3   -1.2    1.4
O    -3.4   -2.1    2.2
H    -1.6    0.6    3.5
H    -3.6    0.4    2.6
C    -3.0    1.4    0.9
C    -4.5    1.9    0.7
C    -5.2    2.5    1.9
N    -4.5    3.6    2.5
C    -3.7    3.5    3.7
N    -3.3    4.8    4.2
N    -3.5    2.4    4.2
H    -2.5    1.3   -0.1
H    -2.5    2.3    1.4
H    -5.1    1.1    0.3
H    -4.5    2.7   -0.1
H    -5.2    1.7    2.7
H    -6.2    2.8    1.7
H    -4.9    4.5    2.3
H    -2.6    4.7    4.9
H    -3.1    5.4    3.5
H    -3.0    2.5    5.1
N    -3.7   -1.5    0.1
C    -3.5   -0.8   -1.2
H    -4.0   -2.5    0.0
H    -3.8   -1.5   -2.0
H    -2.4   -0.6   -1.4
H    -4.0    0.1   -1.3
