          35
 sphere cut out from bulk 
C    -0.1    0.0   -0.1
C    -0.1    0.0    1.4
O     0.9    0.1    2.0
H     0.3    0.9   -0.5
H    -1.1   -0.1   -0.5
H     0.5   -0.8   -0.5
N    -1.3   -0.0    2.0
C    -1.5    0.0    3.5
C    -1.3   -1.4    4.1
O    -2.2   -2.1    4.5
H    -2.2   -0.2    1.5
H    -0.7    0.7    3.8
C    -2.8    0.6    3.9
C    -3.0    0.9    5.3
C    -4.3    1.5    5.7
N    -4.5    1.8    7.1
C    -5.4    2.6    7.6
N    -5.5    2.6    9.0
N    -6.2    3.3    6.8
H    -3.6   -0.1    3.6
H    -3.0    1.5    3.2
H    -2.2    1.7    5.6
H    -2.8    0.0    5.9
H    -5.1    0.9    5.3
H    -4.5    2.5    5.2
H    -4.3    1.0    7.7
H    -6.1    3.4    9.3
H    -4.6    2.6    9.4
H    -6.8    4.0    7.3
N     0.1   -1.7    4.2
C     0.5   -3.0    4.6
H     0.7   -1.1    3.7
H     1.4   -3.0    5.3
H     0.8   -3.7    3.7
H    -0.3   -3.5    5.1
