          35
 sphere cut out from bulk 
C     1.0    0.0    0.9
C     0.3    0.3    2.2
O     0.9    0.5    3.2
H     1.6    0.9    0.7
H     0.3   -0.2    0.1
H     1.6   -0.8    1.0
N    -1.1    0.2    2.2
C    -2.0    0.3    3.4
C    -1.7    1.5    4.3
O    -1.9    1.4    5.5
H    -1.5   -0.1    1.3
H    -3.0    0.5    2.9
C    -2.1   -1.0    4.1
C    -0.9   -1.7    4.8
C    -0.2   -2.7    3.8
N     0.8   -3.5    4.4
C     2.1   -3.1    4.5
N     2.9   -4.1    5.1
N     2.7   -2.0    4.1
H    -2.7   -1.8    3.5
H    -2.9   -0.8    4.9
H    -1.2   -2.2    5.7
H    -0.2   -0.9    5.1
H     0.2   -2.2    2.9
H    -1.0   -3.4    3.4
H     0.5   -4.2    5.2
H     3.9   -3.8    5.1
H     2.8   -5.0    4.8
H     2.0   -1.3    3.8
N    -1.4    2.6    3.7
C    -0.9    3.8    4.4
H    -1.1    2.6    2.7
H    -1.2    4.7    3.9
H     0.1    3.8    4.7
H    -1.5    3.8    5.4
