          35
 sphere cut out from bulk 
C    -0.8   -1.4    0.1
C    -0.1   -0.6    1.1
O     1.1   -0.7    1.4
H    -0.0   -2.1   -0.3
H    -1.2   -0.8   -0.8
H    -1.6   -2.0    0.5
N    -0.9    0.3    1.8
C    -2.3    0.5    1.7
C    -2.6    2.0    1.8
O    -2.5    2.6    2.9
H    -0.4    0.8    2.6
H    -2.6    0.1    0.7
C    -3.1   -0.2    2.8
C    -4.6   -0.0    2.8
C    -5.3   -0.7    1.5
N    -6.7   -0.4    1.4
C    -7.2    0.8    0.9
N    -8.6    0.9    0.9
N    -6.5    1.8    0.5
H    -2.7    0.1    3.8
H    -2.9   -1.3    2.8
H    -4.9    1.0    2.8
H    -5.1   -0.5    3.7
H    -5.2   -1.7    1.5
H    -4.8   -0.3    0.6
H    -7.3   -0.9    2.0
H    -8.9    1.7    0.4
H    -9.1    0.0    0.5
H    -5.5    1.8    0.7
N    -3.0    2.6    0.7
C    -3.0    2.1   -0.7
H    -3.2    3.6    0.8
H    -2.0    1.9   -1.1
H    -3.4    2.9   -1.4
H    -3.7    1.3   -0.8
