          35
 sphere cut out from bulk 
C    -0.3   -0.9    0.3
C    -0.2   -0.7    1.8
O     0.7   -1.0    2.5
H    -0.9   -1.9    0.1
H     0.7   -1.1   -0.0
H    -0.8   -0.1   -0.2
N    -1.4   -0.1    2.5
C    -2.7   -0.0    1.9
C    -3.4    1.2    2.4
O    -4.6    1.3    2.5
H    -1.3   -0.2    3.5
H    -2.6    0.1    0.8
C    -3.5   -1.3    2.2
C    -4.8   -1.5    1.3
C    -5.1   -3.0    1.1
N    -4.2   -3.7    0.2
C    -3.0   -4.3    0.7
N    -3.2   -5.0    1.9
N    -1.9   -4.1    0.1
H    -3.8   -1.4    3.2
H    -2.8   -2.1    2.0
H    -4.6   -1.0    0.3
H    -5.6   -1.0    1.7
H    -6.1   -3.0    0.6
H    -5.2   -3.5    2.0
H    -3.9   -3.2   -0.6
H    -2.4   -5.5    2.2
H    -4.1   -5.5    2.0
H    -1.1   -4.7    0.5
N    -2.6    2.3    2.7
C    -3.1    3.6    3.1
H    -1.6    2.1    2.6
H    -2.8    4.4    2.3
H    -2.6    3.9    4.0
H    -4.2    3.5    3.2
