          35
 sphere cut out from bulk 
C    -2.2   -1.9    0.2
C    -1.6   -1.0    1.2
O    -0.6   -0.2    0.9
H    -1.4   -2.6   -0.2
H    -2.6   -1.4   -0.6
H    -2.9   -2.6    0.6
N    -2.1   -1.0    2.4
C    -1.6   -0.2    3.5
C    -1.6   -1.1    4.8
O    -2.5   -2.0    4.8
H    -2.8   -1.7    2.7
H    -0.5    0.0    3.2
C    -2.3    1.1    3.8
C    -2.2    2.1    2.6
C    -3.4    2.0    1.7
N    -3.3    3.0    0.6
C    -4.2    3.2   -0.4
N    -5.5    2.9   -0.0
N    -3.8    3.8   -1.5
H    -1.8    1.6    4.7
H    -3.3    0.9    4.1
H    -2.3    3.1    3.1
H    -1.3    2.0    2.1
H    -4.3    2.2    2.2
H    -3.5    1.0    1.3
H    -2.3    3.1    0.2
H    -6.2    2.9   -0.8
H    -5.7    2.1    0.6
H    -4.6    3.9   -2.1
N    -0.8   -0.9    5.8
C     0.3    0.1    5.9
H    -0.9   -1.5    6.6
H     1.1   -0.3    6.5
H    -0.1    1.1    6.3
H     0.7    0.3    4.9
