          35
 sphere cut out from bulk 
C     0.1   -1.8    1.1
C    -0.3   -0.6    1.9
O     0.4   -0.2    2.8
H    -0.5   -1.9    0.1
H     0.0   -2.7    1.7
H     1.2   -1.7    0.8
N    -1.5   -0.0    1.5
C    -2.1    1.0    2.3
C    -1.1    2.1    2.8
O    -1.1    2.4    4.0
H    -2.0   -0.4    0.8
H    -2.8    1.6    1.6
C    -3.0    0.5    3.4
C    -4.3    1.2    3.6
C    -4.2    2.6    4.2
N    -3.5    2.7    5.5
C    -4.0    2.0    6.7
N    -5.4    2.0    6.8
N    -3.3    1.5    7.6
H    -2.4    0.4    4.3
H    -3.3   -0.6    3.1
H    -5.0    0.6    4.3
H    -4.9    1.3    2.7
H    -5.3    3.0    4.3
H    -3.7    3.3    3.6
H    -2.5    2.6    5.4
H    -5.9    2.9    6.5
H    -5.6    1.7    7.7
H    -2.3    1.5    7.3
N    -0.3    2.8    1.9
C    -0.2    2.5    0.5
H     0.3    3.4    2.3
H     0.5    1.7    0.2
H     0.2    3.4    0.0
H    -1.2    2.3    0.0
