          35
 sphere cut out from bulk 
C    -0.4   -0.3    4.2
C    -1.1   -1.6    4.4
O    -0.9   -2.4    5.4
H     0.2   -0.4    3.3
H     0.2   -0.1    5.0
H    -1.1    0.5    4.0
N    -2.1   -2.0    3.5
C    -2.6   -1.3    2.4
C    -3.5   -0.1    2.6
O    -3.8    0.6    1.6
H    -2.4   -3.0    3.6
H    -1.8   -0.9    1.8
C    -3.4   -2.3    1.5
C    -4.7   -2.9    2.0
C    -4.7   -3.6    3.4
N    -3.6   -4.5    3.6
C    -3.5   -5.2    4.8
N    -3.2   -4.3    5.9
N    -3.7   -6.4    4.9
H    -2.7   -3.1    1.3
H    -3.6   -1.8    0.5
H    -5.0   -3.6    1.3
H    -5.5   -2.1    2.0
H    -5.7   -4.1    3.5
H    -4.6   -2.8    4.2
H    -3.7   -5.3    2.9
H    -3.0   -4.7    6.8
H    -2.4   -3.6    5.7
H    -3.4   -6.8    5.8
N    -4.1    0.2    3.8
C    -3.9   -0.3    5.2
H    -4.6    1.1    3.8
H    -2.9    0.1    5.7
H    -3.9   -1.4    5.2
H    -4.7    0.1    5.8
