          35
 sphere cut out from bulk 
C    -0.2   -0.5   -0.4
C    -0.1   -0.3    1.1
O     1.0   -0.3    1.6
H    -1.2   -0.1   -0.8
H    -0.2   -1.5   -0.7
H     0.6    0.1   -0.9
N    -1.2   -0.3    1.9
C    -2.6   -0.1    1.5
C    -3.2   -1.1    0.5
O    -4.0   -0.9   -0.4
H    -1.0   -0.2    2.9
H    -3.2   -0.2    2.4
C    -2.9    1.4    0.9
C    -4.4    1.8    1.0
C    -4.9    2.5   -0.2
N    -6.3    2.7   -0.3
C    -7.2    1.6   -0.7
N    -6.6    0.5   -1.3
N    -8.5    1.7   -0.5
H    -2.6    1.4   -0.1
H    -2.3    2.0    1.5
H    -4.5    2.4    1.9
H    -5.0    0.9    1.2
H    -4.5    1.9   -1.1
H    -4.4    3.5   -0.3
H    -6.7    3.4    0.3
H    -7.3   -0.2   -1.4
H    -5.7    0.2   -0.9
H    -8.8    2.6   -0.2
N    -2.7   -2.4    0.8
C    -3.1   -3.6   -0.0
H    -2.0   -2.5    1.5
H    -3.5   -4.3    0.6
H    -2.3   -4.0   -0.6
H    -3.9   -3.2   -0.7
