          35
 sphere cut out from bulk 
C     0.3   -0.1    0.7
C     0.2   -0.1    2.2
O     1.2   -0.3    2.9
H     1.4    0.2    0.4
H    -0.4    0.6    0.2
H     0.2   -1.1    0.2
N    -1.0    0.1    2.7
C    -2.3    0.0    2.0
C    -3.5    0.5    3.0
O    -4.3    1.2    2.6
H    -1.0    0.1    3.7
H    -2.4    0.8    1.2
C    -2.7   -1.4    1.4
C    -2.1   -2.6    2.0
C    -2.5   -3.1    3.4
N    -1.7   -2.4    4.4
C    -1.9   -2.7    5.8
N    -3.1   -3.2    6.2
N    -1.0   -2.4    6.7
H    -2.4   -1.3    0.4
H    -3.8   -1.4    1.4
H    -1.0   -2.6    1.9
H    -2.4   -3.5    1.3
H    -2.4   -4.2    3.5
H    -3.6   -2.9    3.6
H    -0.7   -2.3    4.2
H    -3.2   -3.5    7.1
H    -3.5   -3.9    5.5
H    -0.2   -1.9    6.4
N    -3.4    0.0    4.3
C    -4.4    0.4    5.2
H    -2.8   -0.7    4.5
H    -4.2   -0.2    6.2
H    -5.4    0.1    4.9
H    -4.5    1.4    5.5
