          35
 sphere cut out from bulk 
C     0.1    0.8    0.1
C     0.2    0.2    1.5
O     1.2    0.1    2.1
H     1.1    1.2   -0.2
H    -0.6    1.6    0.0
H    -0.2    0.1   -0.6
N    -1.0   -0.1    2.1
C    -2.4   -0.1    1.5
C    -3.2    1.1    1.8
O    -4.3    1.2    1.3
H    -0.9   -0.6    3.0
H    -2.2   -0.2    0.4
C    -3.1   -1.4    1.9
C    -2.5   -2.7    1.3
C    -3.3   -3.9    1.8
N    -2.9   -5.2    1.3
C    -3.2   -5.6   -0.0
N    -2.5   -6.7   -0.4
N    -4.0   -5.0   -0.8
H    -4.2   -1.3    1.6
H    -3.1   -1.4    3.0
H    -1.5   -2.8    1.6
H    -2.6   -2.6    0.2
H    -4.4   -3.8    1.6
H    -3.2   -4.0    2.9
H    -1.9   -5.5    1.6
H    -2.8   -7.1   -1.3
H    -2.4   -7.5    0.3
H    -4.4   -4.1   -0.5
N    -2.6    2.1    2.5
C    -3.2    3.3    2.9
H    -1.7    1.9    2.9
H    -4.2    3.3    2.4
H    -2.7    4.2    2.5
H    -3.4    3.4    4.0
