          35
 sphere cut out from bulk 
C     0.8    0.4    0.8
C     0.0   -0.7    1.6
O     0.2   -1.9    1.5
H     0.8    1.4    1.3
H     0.2    0.5   -0.2
H     1.8    0.0    0.6
N    -0.9   -0.2    2.5
C    -1.6   -1.0    3.5
C    -2.2   -2.4    3.0
O    -2.0   -3.3    3.8
H    -0.9    0.8    2.7
H    -0.8   -1.3    4.2
C    -2.7   -0.2    4.2
C    -2.5   -0.3    5.8
C    -1.4    0.6    6.3
N    -1.5    2.0    6.1
C    -0.9    2.6    5.0
N    -1.6    3.8    4.6
N     0.0    2.2    4.2
H    -3.7   -0.6    3.9
H    -2.6    0.8    3.9
H    -2.4   -1.3    6.1
H    -3.5    0.1    6.2
H    -0.4    0.2    6.0
H    -1.4    0.4    7.4
H    -2.4    2.4    6.4
H    -1.0    4.3    4.0
H    -1.9    4.4    5.4
H     0.4    1.2    4.5
N    -2.9   -2.4    1.9
C    -3.1   -1.5    0.8
H    -3.2   -3.4    1.7
H    -3.3   -0.5    1.2
H    -4.0   -1.7    0.3
H    -2.3   -1.4    0.1
