          35
 sphere cut out from bulk 
C     0.8   -0.6    0.4
C     0.3   -0.0    1.8
O     1.0    0.9    2.3
H     0.9    0.3   -0.3
H     0.1   -1.3   -0.0
H     1.8   -1.1    0.5
N    -0.8   -0.6    2.2
C    -1.4   -0.3    3.6
C    -1.0    1.1    4.2
O    -0.5    1.2    5.2
H    -1.1   -1.4    1.8
H    -2.5   -0.3    3.4
C    -1.1   -1.4    4.6
C     0.4   -1.8    4.8
C     0.9   -2.9    3.8
N     0.2   -4.1    3.7
C    -0.9   -4.3    2.8
N    -0.7   -3.7    1.5
N    -1.9   -5.1    3.2
H    -1.7   -2.3    4.3
H    -1.5   -1.1    5.5
H     0.5   -2.3    5.8
H     1.0   -0.9    4.8
H     2.0   -3.1    4.1
H     1.0   -2.4    2.8
H    -0.0   -4.6    4.6
H    -1.4   -4.1    0.9
H     0.2   -3.7    1.2
H    -2.5   -5.3    2.4
N    -1.6    2.2    3.5
C    -2.1    2.3    2.2
H    -1.2    3.0    3.9
H    -2.7    3.2    2.1
H    -2.8    1.4    2.0
H    -1.4    2.3    1.4
