          35
 sphere cut out from bulk 
C    -1.3   -0.2   -1.2
C    -0.5   -0.5    0.1
O     0.6   -1.0    0.2
H    -1.4    0.9   -1.4
H    -2.3   -0.6   -1.2
H    -0.7   -0.6   -2.0
N    -1.2   -0.1    1.3
C    -2.4    0.7    1.4
C    -2.3    2.1    1.0
O    -3.3    2.6    0.3
H    -0.6   -0.3    2.1
H    -3.2    0.2    0.8
C    -2.9    0.6    2.9
C    -3.5   -0.8    3.2
C    -4.0   -0.9    4.7
N    -5.1    0.0    5.0
C    -4.9    1.2    5.6
N    -6.2    1.9    5.8
N    -3.9    1.8    6.1
H    -3.7    1.3    3.0
H    -2.1    0.9    3.6
H    -2.7   -1.6    3.1
H    -4.3   -1.1    2.5
H    -3.2   -0.7    5.4
H    -4.4   -1.9    4.8
H    -6.0   -0.4    5.0
H    -6.0    2.8    6.2
H    -6.8    1.9    5.0
H    -3.0    1.1    6.0
N    -1.2    2.9    1.2
C    -0.0    2.6    2.0
H    -1.3    3.9    0.9
H    -0.3    2.1    3.0
H     0.5    3.5    2.2
H     0.7    1.9    1.5
