          35
 sphere cut out from bulk 
C     0.5    1.3    0.2
C     0.3    1.0    1.6
O     1.1    1.4    2.5
H    -0.1    0.7   -0.5
H     1.5    1.1   -0.1
H     0.3    2.4   -0.0
N    -0.8    0.4    2.0
C    -1.3    0.2    3.4
C    -1.2    1.6    4.0
O    -1.9    2.5    3.5
H    -1.5    0.2    1.2
H    -2.4    0.1    3.3
C    -0.8   -1.1    4.0
C     0.7   -1.5    3.8
C     1.1   -2.7    4.6
N     1.1   -2.4    6.0
C     2.3   -2.0    6.8
N     3.3   -1.5    6.0
N     2.4   -2.0    8.0
H    -1.4   -1.9    3.7
H    -0.9   -1.0    5.1
H     1.4   -0.7    3.9
H     0.8   -1.8    2.7
H     2.1   -3.0    4.3
H     0.4   -3.5    4.5
H     0.5   -2.9    6.6
H     4.0   -1.1    6.5
H     3.0   -0.9    5.2
H     1.7   -2.5    8.5
N    -0.6    1.8    5.2
C     0.7    1.2    5.8
H    -0.7    2.8    5.5
H     1.0    1.8    6.6
H     1.4    1.2    5.0
H     0.5    0.2    6.1
