          35
 sphere cut out from bulk 
C    -0.4   -2.8    0.2
C    -0.2   -1.9    1.4
O     0.7   -2.0    2.2
H     0.1   -2.4   -0.7
H    -1.4   -3.0   -0.1
H     0.1   -3.8    0.5
N    -1.1   -0.8    1.5
C    -2.3   -0.5    0.8
C    -3.4   -1.6    0.7
O    -3.8   -2.0   -0.3
H    -0.8   -0.2    2.3
H    -2.8    0.4    1.4
C    -2.0    0.1   -0.6
C    -1.1    1.3   -0.7
C    -0.8    1.8   -2.1
N     0.1    2.9   -2.0
C     0.6    3.6   -3.2
N    -0.3    3.6   -4.2
N     1.7    4.2   -3.3
H    -3.0    0.4   -1.1
H    -1.6   -0.7   -1.3
H    -0.1    1.0   -0.2
H    -1.5    2.1   -0.0
H    -1.8    2.1   -2.5
H    -0.4    1.0   -2.7
H     0.8    2.8   -1.3
H    -1.3    3.7   -4.0
H     0.0    4.2   -5.0
H     2.4    4.0   -2.5
N    -3.8   -2.1    1.9
C    -3.4   -1.7    3.3
H    -4.4   -2.8    1.8
H    -2.4   -2.1    3.6
H    -4.2   -2.0    4.0
H    -3.4   -0.6    3.4
