          35
 sphere cut out from bulk 
C     1.1   -1.6    1.2
C     0.2   -2.7    1.8
O     0.4   -3.9    1.7
H     0.7   -1.3    0.2
H     2.1   -2.0    1.1
H     1.1   -0.7    1.8
N    -1.0   -2.3    2.3
C    -1.7   -1.0    2.1
C    -2.7   -0.7    3.3
O    -3.7    0.0    3.2
H    -1.6   -3.1    2.5
H    -1.0   -0.2    2.2
C    -2.4   -0.8    0.8
C    -3.4   -2.0    0.4
C    -2.8   -3.3   -0.2
N    -1.8   -3.0   -1.2
C    -1.1   -4.0   -1.8
N    -0.6   -5.0   -0.9
N    -0.7   -4.1   -3.1
H    -1.6   -0.8    0.0
H    -3.0    0.1    0.8
H    -4.0   -1.5   -0.4
H    -4.1   -2.2    1.2
H    -3.6   -3.9   -0.5
H    -2.3   -3.8    0.6
H    -2.2   -2.4   -1.9
H     0.0   -5.7   -1.4
H    -0.3   -4.7   -0.0
H    -1.2   -3.4   -3.6
N    -2.3   -1.3    4.5
C    -3.1   -1.1    5.7
H    -1.5   -1.9    4.5
H    -3.3   -2.0    6.2
H    -4.0   -0.6    5.5
H    -2.5   -0.5    6.4
