          35
 sphere cut out from bulk 
C     1.2   -1.3    1.0
C     0.8    0.0    1.6
O     1.4    1.1    1.4
H     2.2   -1.6    1.6
H     1.5   -1.2   -0.0
H     0.5   -2.1    1.2
N    -0.5    0.0    2.1
C    -1.2    1.1    2.8
C    -2.5    1.5    2.0
O    -3.6    1.4    2.6
H    -0.9   -0.9    2.1
H    -1.7    0.6    3.7
C    -0.4    2.3    3.3
C    -1.1    3.2    4.2
C    -0.2    4.4    4.6
N     0.1    5.2    3.4
C     1.4    5.5    3.0
N     2.3    4.4    3.2
N     1.7    6.7    2.5
H    -0.0    2.8    2.4
H     0.5    1.9    3.8
H    -1.5    2.7    5.1
H    -2.1    3.6    3.7
H     0.7    4.1    5.0
H    -0.8    5.1    5.3
H    -0.4    6.1    3.3
H     3.2    4.5    2.8
H     1.9    3.5    2.9
H     2.7    6.7    2.1
N    -2.4    2.0    0.8
C    -1.2    2.1   -0.1
H    -3.3    2.2    0.4
H    -1.4    3.0   -0.7
H    -1.2    1.2   -0.8
H    -0.3    2.2    0.5
