          35
 sphere cut out from bulk 
C    -0.1    0.2    0.1
C    -0.1    0.1    1.6
O     1.0    0.2    2.2
H     0.4   -0.6   -0.3
H     0.4    1.1   -0.2
H    -1.1    0.3   -0.3
N    -1.2   -0.1    2.3
C    -2.6   -0.0    2.0
C    -3.0   -0.9    0.8
O    -4.0   -0.6    0.0
H    -1.0   -0.1    3.3
H    -3.1   -0.5    2.8
C    -3.2    1.4    1.9
C    -2.6    2.4    0.9
C    -3.4    3.7    0.9
N    -2.9    4.7   -0.1
C    -1.7    5.4    0.1
N    -1.4    6.2   -1.0
N    -1.0    5.5    1.2
H    -3.1    1.9    2.9
H    -4.3    1.3    1.8
H    -2.8    1.9   -0.1
H    -1.6    2.5    1.0
H    -3.3    4.2    1.9
H    -4.5    3.5    0.7
H    -3.1    4.5   -1.0
H    -0.6    6.8   -0.8
H    -2.1    6.7   -1.4
H    -1.3    4.8    1.9
N    -2.4   -2.1    0.7
C    -2.6   -3.0   -0.4
H    -1.6   -2.2    1.3
H    -1.8   -3.1   -1.1
H    -3.5   -2.7   -0.9
H    -2.8   -4.0    0.1
