          35
 sphere cut out from bulk 
C    -1.6    1.9    0.1
C    -1.2    1.6    1.6
O    -0.2    2.0    2.0
H    -2.6    1.6   -0.1
H    -0.9    1.4   -0.5
H    -1.6    3.0   -0.0
N    -2.2    0.9    2.3
C    -2.0    0.3    3.6
C    -2.0    1.4    4.8
O    -2.8    1.3    5.7
H    -3.0    0.7    1.8
H    -2.9   -0.2    3.8
C    -0.8   -0.7    3.7
C    -0.7   -1.4    5.1
C     0.1   -0.6    6.2
N     0.3   -1.4    7.4
C     1.3   -2.4    7.5
N     1.2   -3.1    8.6
N     2.2   -2.7    6.6
H     0.1   -0.1    3.5
H    -1.0   -1.4    2.9
H    -0.2   -2.4    4.9
H    -1.7   -1.7    5.5
H    -0.5    0.3    6.5
H     1.0   -0.3    5.8
H    -0.5   -1.6    8.0
H     2.0   -3.7    8.7
H     1.0   -2.6    9.5
H     2.1   -2.1    5.7
N    -1.1    2.4    4.6
C    -0.9    3.4    5.6
H    -0.5    2.4    3.8
H    -0.7    4.4    5.2
H    -0.1    3.2    6.3
H    -1.9    3.5    6.2
