          35
 sphere cut out from bulk 
C    -0.3    0.1   -0.2
C     0.1   -0.5    1.1
O     1.2   -1.0    1.4
H    -1.1   -0.4   -0.7
H     0.6   -0.1   -0.9
H    -0.5    1.1   -0.2
N    -0.9   -0.5    2.2
C    -2.3   -0.1    2.3
C    -3.1   -1.3    2.8
O    -3.8   -1.2    3.8
H    -0.5   -0.9    3.0
H    -2.3    0.6    3.2
C    -2.9    0.7    1.2
C    -4.3    1.3    1.6
C    -5.5    0.3    1.3
N    -6.8    0.9    1.4
C    -7.3    1.7    0.4
N    -8.5    2.3    0.8
N    -6.9    2.0   -0.7
H    -3.0    0.2    0.3
H    -2.3    1.6    1.0
H    -4.5    2.2    1.0
H    -4.4    1.6    2.6
H    -5.4   -0.6    2.0
H    -5.4   -0.1    0.3
H    -7.1    1.1    2.4
H    -9.0    2.8    0.1
H    -9.2    1.7    1.3
H    -6.0    1.6   -0.9
N    -3.1   -2.4    2.0
C    -2.4   -2.8    0.8
H    -3.7   -3.2    2.5
H    -1.4   -2.9    0.9
H    -2.6   -2.0    0.0
H    -2.9   -3.7    0.4
