          35
 sphere cut out from bulk 
C     0.1    0.2    0.7
C    -0.2   -0.3    2.1
O     0.6   -0.8    2.8
H     0.7    1.1    0.9
H    -0.7    0.5    0.1
H     0.8   -0.5    0.2
N    -1.5    0.0    2.6
C    -2.9   -0.0    2.1
C    -3.5   -1.5    2.2
O    -4.5   -1.6    3.0
H    -1.4   -0.3    3.6
H    -3.4    0.5    3.0
C    -3.3    0.7    0.8
C    -3.5    2.2    0.9
C    -2.2    3.1    0.8
N    -1.3    3.1    1.9
C    -0.1    3.7    1.9
N    -0.1    5.0    1.3
N     0.9    3.2    2.5
H    -4.2    0.3    0.6
H    -2.6    0.4    0.0
H    -3.9    2.5    1.9
H    -4.2    2.5    0.1
H    -2.6    4.1    0.6
H    -1.7    2.8   -0.2
H    -1.2    2.2    2.4
H     0.8    5.3    1.0
H    -0.9    5.2    0.7
H     1.7    3.8    2.5
N    -3.0   -2.5    1.5
C    -1.9   -2.5    0.6
H    -3.5   -3.4    1.7
H    -2.0   -3.4   -0.1
H    -0.9   -2.6    1.1
H    -1.8   -1.7   -0.1
