          35
 sphere cut out from bulk 
C    -0.4    2.3    2.1
C    -0.9    1.4    3.2
O    -1.5    1.8    4.2
H     0.2    3.1    2.6
H    -1.3    2.8    1.7
H     0.1    1.8    1.3
N    -0.7    0.1    3.0
C    -1.2   -1.0    3.9
C    -0.2   -2.0    4.3
O    -0.5   -3.1    4.7
H    -0.4   -0.2    2.1
H    -1.6   -0.5    4.8
C    -2.5   -1.7    3.2
C    -3.8   -0.8    3.3
C    -4.5   -1.0    4.6
N    -3.8   -0.9    5.9
C    -3.9    0.2    6.7
N    -3.9    1.4    6.0
N    -3.9    0.2    8.0
H    -2.6   -2.6    3.8
H    -2.2   -1.9    2.2
H    -4.4   -1.1    2.5
H    -3.5    0.2    3.2
H    -5.0   -2.0    4.6
H    -5.4   -0.3    4.6
H    -3.7   -1.7    6.4
H    -4.0    2.2    6.7
H    -3.2    1.6    5.3
H    -4.0   -0.7    8.3
N     1.1   -1.6    4.3
C     2.2   -2.3    4.8
H     1.2   -0.6    4.0
H     2.6   -1.9    5.7
H     3.0   -2.4    4.1
H     1.9   -3.4    5.0
