          35
 sphere cut out from bulk 
C    -1.0    0.9   -0.6
C    -0.4    0.8    0.8
O     0.7    1.3    1.1
H    -0.9   -0.1   -1.1
H    -0.3    1.6   -1.1
H    -2.0    1.3   -0.6
N    -1.2    0.1    1.8
C    -2.5   -0.4    1.7
C    -3.3    0.2    2.8
O    -2.8    0.4    3.9
H    -0.8    0.2    2.7
H    -2.9   -0.1    0.7
C    -2.5   -1.9    1.8
C    -1.9   -2.7    0.6
C    -0.7   -3.6    1.0
N     0.4   -3.0    1.7
C     1.2   -2.1    1.0
N     2.1   -1.4    1.8
N     1.1   -1.9   -0.3
H    -3.6   -2.3    1.9
H    -2.1   -2.2    2.7
H    -1.5   -2.0   -0.1
H    -2.6   -3.3    0.1
H    -0.3   -4.1    0.1
H    -1.1   -4.4    1.7
H     0.2   -2.8    2.7
H     2.1   -0.4    1.6
H     2.0   -1.5    2.8
H     1.8   -1.3   -0.6
N    -4.7    0.4    2.6
C    -5.4    0.2    1.4
H    -5.1    0.7    3.4
H    -6.4    0.5    1.6
H    -5.4   -0.8    1.0
H    -5.0    0.9    0.6
