          35
 sphere cut out from bulk 
C    -2.4    1.3    2.2
C    -1.7    0.3    3.1
O    -0.9    0.7    3.9
H    -3.1    1.9    2.8
H    -3.0    0.8    1.4
H    -1.7    2.0    1.8
N    -1.9   -1.0    2.8
C    -1.4   -2.1    3.6
C    -0.5   -3.0    2.8
O    -0.3   -4.2    3.2
H    -2.6   -1.2    2.0
H    -0.8   -1.5    4.3
C    -2.5   -2.8    4.5
C    -3.3   -3.9    3.9
C    -4.2   -3.6    2.6
N    -3.4   -3.6    1.4
C    -3.4   -2.6    0.5
N    -2.4   -2.9   -0.5
N    -4.1   -1.6    0.4
H    -3.1   -2.0    4.9
H    -1.9   -3.2    5.3
H    -4.0   -4.2    4.7
H    -2.7   -4.8    3.7
H    -4.6   -2.6    2.8
H    -5.0   -4.3    2.5
H    -2.8   -4.4    1.3
H    -1.5   -3.1   -0.2
H    -2.4   -2.1   -1.2
H    -4.9   -1.6    1.1
N     0.1   -2.5    1.7
C     1.2   -3.2    1.1
H    -0.0   -1.5    1.6
H     1.1   -4.2    1.3
H     2.2   -2.8    1.4
H     1.2   -3.0   -0.0
