          35
 sphere cut out from bulk 
C     0.2    0.2    0.5
C     0.1    0.2    2.0
O     1.1    0.3    2.8
H     1.3    0.4    0.2
H    -0.3    1.1    0.1
H    -0.1   -0.7   -0.0
N    -1.2    0.0    2.5
C    -2.4   -0.1    1.8
C    -3.5    0.6    2.5
O    -4.6    0.0    2.9
H    -1.2   -0.1    3.5
H    -2.3    0.4    0.8
C    -2.8   -1.6    1.4
C    -2.4   -2.7    2.4
C    -3.1   -2.6    3.8
N    -2.8   -3.8    4.6
C    -1.6   -3.9    5.3
N    -1.6   -5.1    6.0
N    -0.7   -3.1    5.5
H    -2.3   -1.8    0.4
H    -3.9   -1.6    1.2
H    -1.3   -2.7    2.5
H    -2.6   -3.7    1.9
H    -4.2   -2.6    3.6
H    -2.8   -1.7    4.3
H    -3.2   -4.7    4.3
H    -0.8   -5.1    6.6
H    -2.4   -5.4    6.5
H    -0.8   -2.3    4.8
N    -3.4    1.9    2.8
C    -2.3    2.8    2.4
H    -4.1    2.3    3.4
H    -2.6    3.8    2.5
H    -2.0    2.6    1.4
H    -1.4    2.7    3.1
