          35
 sphere cut out from bulk 
C    -2.7    0.9   -0.4
C    -1.9    0.5    0.8
O    -0.7    0.3    0.7
H    -2.6    0.1   -1.1
H    -2.3    1.8   -0.8
H    -3.8    1.1   -0.2
N    -2.6    0.5    2.0
C    -2.0    0.1    3.2
C    -3.0   -0.9    3.9
O    -4.2   -0.8    3.8
H    -3.6    0.6    2.0
H    -1.1   -0.5    2.9
C    -1.6    1.2    4.2
C    -0.7    2.2    3.6
C    -0.3    3.3    4.6
N     0.5    4.4    4.1
C     1.8    4.2    3.6
N     2.6    3.3    4.3
N     2.3    5.0    2.7
H    -1.2    0.8    5.1
H    -2.6    1.7    4.5
H    -1.2    2.7    2.7
H     0.2    1.8    3.2
H     0.2    2.9    5.5
H    -1.2    3.8    5.0
H     0.1    5.1    3.6
H     2.1    2.5    4.8
H     3.4    2.9    3.8
H     3.3    4.9    2.5
N    -2.4   -1.9    4.7
C    -3.2   -2.8    5.4
H    -1.4   -2.0    4.7
H    -2.9   -2.8    6.5
H    -3.0   -3.9    5.1
H    -4.2   -2.6    5.3
