          35
 sphere cut out from bulk 
C    -0.4    1.2    0.4
C    -1.1    0.8    1.7
O    -1.6    1.6    2.5
H    -0.0    0.4   -0.2
H     0.5    1.9    0.7
H    -1.1    1.8   -0.2
N    -1.1   -0.6    1.9
C    -1.6   -1.1    3.2
C    -0.7   -2.2    3.6
O     0.0   -2.9    2.8
H    -0.6   -1.2    1.4
H    -1.6   -0.3    3.9
C    -3.1   -1.7    3.0
C    -4.2   -0.6    2.9
C    -4.3    0.3    4.0
N    -4.7   -0.3    5.3
C    -3.8   -0.8    6.3
N    -2.5   -0.2    6.3
N    -4.1   -1.7    7.2
H    -3.3   -2.3    4.0
H    -3.1   -2.4    2.2
H    -5.1   -1.1    2.7
H    -4.0   -0.0    2.0
H    -5.1    1.1    3.8
H    -3.4    0.9    4.2
H    -5.5   -0.8    5.3
H    -2.1   -0.3    7.2
H    -2.5    0.8    6.0
H    -5.0   -2.1    7.0
N    -0.7   -2.4    5.0
C     0.1   -3.5    5.6
H    -1.2   -1.8    5.5
H     0.9   -3.1    6.2
H     0.5   -4.1    4.8
H    -0.6   -4.1    6.2
