          35
 sphere cut out from bulk 
C    -0.6   -0.0   -0.5
C    -0.5   -0.4    0.9
O     0.4   -1.2    1.3
H    -0.5    1.0   -0.7
H    -1.6   -0.4   -0.9
H     0.2   -0.5   -1.1
N    -1.3    0.2    1.8
C    -2.4    1.1    1.6
C    -3.6    0.4    0.8
O    -4.1   -0.6    1.4
H    -1.2   -0.2    2.8
H    -2.9    1.1    2.6
C    -2.0    2.5    1.3
C    -3.1    3.6    1.6
C    -3.2    3.9    3.1
N    -4.3    4.9    3.4
C    -4.8    5.0    4.7
N    -5.7    6.1    4.8
N    -4.4    4.2    5.6
H    -1.7    2.6    0.3
H    -1.1    2.8    1.9
H    -4.1    3.2    1.3
H    -2.9    4.5    1.1
H    -2.2    4.3    3.5
H    -3.5    3.0    3.7
H    -4.2    5.7    2.9
H    -6.2    6.1    5.6
H    -6.3    6.2    4.0
H    -4.9    4.3    6.5
N    -4.0    0.8   -0.4
C    -3.6    1.8   -1.3
H    -4.8    0.2   -0.7
H    -3.8    2.9   -0.9
H    -4.2    1.7   -2.2
H    -2.6    1.8   -1.6
