          35
 sphere cut out from bulk 
C     0.6    1.2    0.7
C     0.1    0.6    2.0
O     0.9    0.5    3.0
H     1.6    1.7    0.8
H    -0.1    2.0    0.3
H     0.7    0.5   -0.1
N    -1.1   -0.0    2.0
C    -2.1   -0.1    0.9
C    -3.0    1.1    0.7
O    -3.7    1.2   -0.3
H    -1.3   -0.5    2.9
H    -1.6   -0.2   -0.0
C    -3.0   -1.4    1.1
C    -2.2   -2.7    0.9
C    -3.1   -3.9    1.0
N    -4.2   -4.0    0.1
C    -5.5   -3.7    0.5
N    -6.4   -3.8   -0.6
N    -6.0   -3.3    1.6
H    -3.8   -1.3    0.4
H    -3.4   -1.3    2.1
H    -1.4   -2.8    1.6
H    -1.8   -2.7   -0.1
H    -3.4   -4.0    2.1
H    -2.5   -4.8    0.9
H    -4.1   -4.6   -0.7
H    -7.3   -3.5   -0.3
H    -6.1   -3.5   -1.4
H    -5.2   -3.3    2.4
N    -2.9    2.1    1.7
C    -3.7    3.3    1.7
H    -2.3    1.9    2.5
H    -4.3    3.3    0.8
H    -3.1    4.2    1.7
H    -4.4    3.3    2.6
