          35
 sphere cut out from bulk 
C    -1.8    0.1   -0.1
C    -1.3    0.2    1.3
O    -0.0    0.1    1.5
H    -2.9    0.2   -0.2
H    -1.5   -0.9   -0.5
H    -1.4    0.9   -0.7
N    -2.2    0.3    2.3
C    -2.0    0.3    3.8
C    -1.2    1.5    4.3
O    -1.8    2.1    5.3
H    -3.2    0.4    2.0
H    -3.0    0.3    4.2
C    -1.3   -1.0    4.2
C    -1.0   -1.1    5.7
C    -2.2   -1.0    6.6
N    -1.9   -1.2    8.0
C    -2.1   -2.3    8.8
N    -2.1   -3.5    8.1
N    -2.2   -2.4   10.1
H    -0.3   -1.2    3.6
H    -1.9   -1.9    3.9
H    -0.3   -0.3    6.0
H    -0.4   -2.0    5.9
H    -2.9   -1.8    6.3
H    -2.7   -0.1    6.5
H    -1.9   -0.3    8.6
H    -2.1   -4.3    8.7
H    -1.4   -3.6    7.3
H    -2.3   -1.4   10.5
N    -0.1    1.9    3.8
C     0.7    3.0    4.2
H     0.2    1.3    3.0
H     1.7    2.6    4.5
H     0.2    3.5    5.0
H     0.9    3.7    3.4
