          35
 sphere cut out from bulk 
C    -1.2    1.4    0.3
C    -0.1    0.6    1.0
O     1.0    1.0    1.3
H    -0.7    2.4   -0.0
H    -2.0    1.6    0.9
H    -1.6    0.9   -0.6
N    -0.4   -0.7    1.2
C    -1.7   -1.4    1.1
C    -2.9   -0.8    2.0
O    -3.9   -0.5    1.5
H     0.3   -1.2    1.7
H    -2.1   -1.2    0.1
C    -1.5   -2.9    1.2
C    -2.8   -3.8    1.2
C    -3.6   -3.6   -0.1
N    -4.5   -4.8   -0.3
C    -5.7   -4.9    0.5
N    -6.4   -6.1    0.2
N    -6.0   -4.0    1.4
H    -1.0   -3.1    2.1
H    -0.9   -3.2    0.4
H    -3.4   -3.5    2.1
H    -2.5   -4.8    1.4
H    -3.0   -3.6   -0.9
H    -4.2   -2.7   -0.0
H    -4.1   -5.6   -0.6
H    -7.3   -6.2    0.6
H    -6.5   -6.3   -0.8
H    -7.0   -4.2    1.8
N    -2.6   -0.6    3.3
C    -1.4   -0.9    4.1
H    -3.5   -0.2    3.8
H    -1.0   -1.9    4.0
H    -1.7   -0.8    5.2
H    -0.7   -0.1    3.9
