          35
 sphere cut out from bulk 
C    -0.3   -0.4   -0.3
C     0.1   -0.3    1.1
O     1.3   -0.7    1.4
H     0.5   -0.7   -0.9
H    -0.7    0.6   -0.6
H    -1.2   -1.1   -0.4
N    -0.7    0.1    2.2
C    -2.1    0.4    2.3
C    -3.0   -0.7    3.2
O    -3.6   -0.2    4.1
H    -0.2    0.0    3.0
H    -2.2    1.2    3.0
C    -2.9    0.8    1.1
C    -2.6    2.2    0.6
C    -3.3    2.6   -0.7
N    -4.7    2.5   -0.7
C    -5.5    1.4   -1.2
N    -6.8    1.6   -1.0
N    -5.0    0.4   -1.7
H    -4.0    0.8    1.4
H    -2.8    0.1    0.3
H    -1.5    2.3    0.5
H    -2.8    2.9    1.4
H    -2.9    2.0   -1.5
H    -3.0    3.6   -1.0
H    -5.2    3.4   -0.6
H    -7.3    0.8   -1.3
H    -7.1    2.0   -0.1
H    -4.0    0.4   -1.9
N    -2.9   -2.0    2.9
C    -2.2   -2.7    1.8
H    -3.5   -2.5    3.5
H    -2.6   -2.3    0.8
H    -2.6   -3.7    1.8
H    -1.2   -2.6    1.8
