          35
 sphere cut out from bulk 
C    -0.1   -0.1   -0.3
C    -0.1   -0.2    1.2
O     0.9   -0.7    1.8
H     0.8    0.5   -0.6
H    -0.9    0.5   -0.7
H    -0.1   -1.1   -0.7
N    -1.2    0.3    1.9
C    -1.4    0.2    3.3
C    -2.4   -1.0    3.6
O    -3.5   -0.8    3.3
H    -2.0    0.6    1.4
H    -0.4   -0.1    3.7
C    -1.9    1.5    4.0
C    -2.0    1.4    5.5
C    -2.5    2.7    6.1
N    -2.6    2.6    7.5
C    -1.8    3.2    8.5
N    -0.5    3.5    7.9
N    -2.0    3.5    9.7
H    -2.9    1.7    3.5
H    -1.2    2.3    3.7
H    -1.0    1.2    5.9
H    -2.6    0.6    5.8
H    -3.5    2.9    5.7
H    -1.9    3.5    5.8
H    -3.6    2.5    7.9
H     0.1    3.8    8.7
H    -0.1    2.8    7.4
H    -3.0    3.4    9.9
N    -1.9   -2.1    4.1
C    -0.5   -2.5    4.5
H    -2.6   -2.8    4.2
H    -0.4   -3.5    4.6
H    -0.2   -2.0    5.5
H     0.2   -2.1    3.7
