          35
 sphere cut out from bulk 
C    -1.0   -4.4    1.4
C    -0.9   -2.9    2.0
O    -0.1   -2.1    1.5
H    -1.4   -4.3    0.4
H    -1.6   -5.0    2.0
H     0.0   -4.8    1.4
N    -1.8   -2.6    3.0
C    -1.9   -1.3    3.5
C    -0.8   -1.1    4.7
O    -1.1   -1.1    5.8
H    -2.4   -3.4    3.3
H    -1.6   -0.6    2.7
C    -3.3   -1.0    4.1
C    -4.4   -0.8    3.1
C    -5.0   -2.0    2.5
N    -5.6   -3.0    3.5
C    -4.8   -4.0    4.0
N    -5.1   -4.4    5.3
N    -4.0   -4.7    3.3
H    -3.1   -0.1    4.7
H    -3.5   -1.8    4.9
H    -4.0   -0.1    2.3
H    -5.2   -0.2    3.6
H    -4.3   -2.6    1.9
H    -5.9   -1.7    1.9
H    -6.2   -2.6    4.2
H    -5.2   -3.6    6.0
H    -4.6   -5.2    5.6
H    -4.0   -4.5    2.3
N     0.5   -1.1    4.1
C     1.6   -1.0    5.0
H     0.6   -1.2    3.1
H     2.2   -2.0    5.0
H     1.3   -0.8    6.0
H     2.3   -0.2    4.6
