          35
 sphere cut out from bulk 
C     0.3    0.8   -0.2
C     0.4    0.3    1.2
O     1.5    0.2    1.8
H     0.7    0.0   -0.9
H     1.0    1.7   -0.3
H    -0.7    1.1   -0.5
N    -0.8    0.1    1.8
C    -1.0   -0.6    3.1
C     0.1    0.0    4.2
O     0.8   -0.7    4.8
H    -1.6    0.2    1.3
H    -2.0   -0.3    3.5
C    -0.9   -2.1    3.0
C    -1.4   -2.8    4.2
C    -0.6   -4.1    4.6
N     0.8   -3.8    4.8
C     1.8   -4.0    3.9
N     2.8   -3.1    4.0
N     1.6   -5.0    3.0
H     0.1   -2.4    2.8
H    -1.5   -2.4    2.1
H    -2.5   -3.1    4.1
H    -1.4   -2.2    5.1
H    -0.6   -4.8    3.7
H    -1.1   -4.6    5.4
H     0.9   -2.9    5.3
H     2.6   -2.1    4.2
H     3.5   -3.1    3.3
H     2.4   -4.9    2.4
N    -0.0    1.3    4.5
C    -0.8    2.4    3.8
H     0.7    1.6    5.1
H    -0.3    2.8    2.9
H    -0.9    3.2    4.5
H    -1.8    2.0    3.6
