          35
 sphere cut out from bulk 
C     0.1   -0.3    0.4
C     0.0   -0.3    1.9
O     1.0   -0.3    2.6
H     0.2    0.7    0.1
H    -0.8   -0.7   -0.1
H     1.0   -0.9    0.1
N    -1.2   -0.4    2.5
C    -2.6   -0.3    2.0
C    -3.0   -1.5    1.2
O    -4.0   -1.5    0.5
H    -1.1   -0.4    3.5
H    -3.2   -0.4    2.9
C    -2.9    1.0    1.2
C    -3.0    2.2    2.1
C    -4.5    2.5    2.6
N    -5.1    1.6    3.5
C    -5.5    0.3    3.1
N    -6.2    0.2    1.9
N    -5.3   -0.7    3.9
H    -3.7    0.9    0.6
H    -2.0    1.2    0.5
H    -2.7    3.1    1.6
H    -2.4    2.2    3.0
H    -5.1    2.7    1.7
H    -4.5    3.5    3.1
H    -4.7    1.5    4.4
H    -5.9   -0.6    1.3
H    -6.4    1.1    1.4
H    -5.8   -1.5    3.6
N    -2.3   -2.7    1.4
C    -2.7   -4.0    0.8
H    -1.5   -2.6    2.0
H    -1.8   -4.3    0.2
H    -3.5   -3.8    0.1
H    -2.9   -4.7    1.6
