          35
 sphere cut out from bulk 
C     1.3   -0.9    1.1
C     0.9   -0.6    2.6
O     1.6   -0.7    3.5
H     2.2   -0.3    1.0
H     0.6   -0.6    0.4
H     1.6   -1.9    1.1
N    -0.4   -0.2    2.7
C    -1.1   -0.1    4.0
C    -0.4    0.8    5.0
O    -0.5    0.6    6.2
H    -1.0   -0.2    1.9
H    -2.0    0.5    3.7
C    -1.7   -1.4    4.6
C    -0.6   -2.4    5.0
C    -0.4   -3.5    4.0
N     0.6   -4.5    4.4
C     1.9   -4.7    3.9
N     2.4   -3.7    3.2
N     2.5   -5.8    4.1
H    -2.4   -1.8    3.9
H    -2.2   -1.1    5.5
H    -1.0   -2.9    6.0
H     0.3   -2.0    5.3
H     0.0   -3.0    3.0
H    -1.3   -4.0    3.7
H     0.2   -5.3    4.9
H     3.4   -3.9    3.0
H     2.2   -2.7    3.6
H     2.0   -6.6    4.5
N     0.3    1.9    4.5
C     1.1    2.8    5.3
H     0.4    1.9    3.5
H     1.1    3.8    4.9
H     2.1    2.4    5.4
H     0.6    2.8    6.3
