          35
 sphere cut out from bulk 
C    -1.8   -0.9    0.2
C    -0.6   -1.0    1.2
O     0.4   -1.7    0.9
H    -1.8    0.1   -0.2
H    -2.8   -1.1    0.7
H    -1.6   -1.6   -0.6
N    -0.7   -0.4    2.4
C    -1.7    0.5    2.8
C    -1.7    1.9    2.2
O    -2.8    2.5    1.9
H     0.1   -0.5    3.0
H    -2.7    0.1    2.5
C    -1.8    0.6    4.3
C    -2.2   -0.6    5.1
C    -3.7   -0.8    5.3
N    -4.6   -1.1    4.2
C    -4.9   -0.1    3.2
N    -5.2    1.1    3.8
N    -4.9   -0.5    2.0
H    -2.4    1.5    4.6
H    -0.7    0.9    4.7
H    -1.8   -1.5    4.5
H    -1.7   -0.7    6.1
H    -4.1    0.1    5.8
H    -3.9   -1.6    6.1
H    -4.4   -1.9    3.7
H    -5.4    1.9    3.1
H    -5.7    1.2    4.6
H    -5.3    0.3    1.4
N    -0.5    2.6    1.9
C     0.8    2.1    2.1
H    -0.7    3.5    1.5
H     1.0    1.8    3.2
H     1.5    3.0    2.0
H     1.2    1.4    1.5
