          35
 sphere cut out from bulk 
C    -0.1   -0.2    0.8
C    -0.3   -0.3    2.3
O     0.7   -0.4    3.0
H    -0.1   -1.3    0.4
H    -0.8    0.3    0.2
H     0.9    0.2    0.6
N    -1.6   -0.3    2.8
C    -2.9   -0.1    2.1
C    -3.1   -0.7    0.8
O    -3.5   -0.1   -0.2
H    -1.6   -0.4    3.8
H    -3.6   -0.6    2.8
C    -3.3    1.4    2.1
C    -2.3    2.4    1.4
C    -2.9    3.8    1.5
N    -2.0    4.8    0.9
C    -2.0    5.0   -0.5
N    -1.0    5.9   -0.9
N    -2.7    4.5   -1.4
H    -3.4    1.7    3.2
H    -4.3    1.5    1.6
H    -2.2    2.1    0.4
H    -1.4    2.4    1.9
H    -3.0    4.1    2.6
H    -3.9    3.9    1.0
H    -1.1    5.0    1.4
H    -1.1    6.1   -1.9
H    -0.9    6.8   -0.3
H    -3.3    3.7   -1.0
N    -2.9   -2.1    0.7
C    -2.5   -3.0    1.8
H    -3.0   -2.5   -0.2
H    -1.5   -3.0    2.0
H    -2.9   -4.0    1.5
H    -3.1   -2.8    2.7
