          35
 sphere cut out from bulk 
C     0.9    0.0    1.7
C     0.0   -0.6    2.8
O     0.3   -1.6    3.4
H     0.5    0.1    0.7
H     1.8   -0.6    1.6
H     1.2    1.1    2.0
N    -1.2   -0.0    3.0
C    -1.8    1.1    2.3
C    -2.6    1.9    3.4
O    -3.5    1.3    4.0
H    -1.8   -0.5    3.7
H    -0.9    1.8    2.0
C    -2.7    0.7    1.1
C    -3.3    1.8    0.3
C    -2.4    2.4   -0.8
N    -1.1    3.1   -0.3
C    -1.1    4.1    0.6
N    -2.2    5.0    0.5
N    -0.2    4.4    1.5
H    -3.5    0.1    1.5
H    -2.1    0.0    0.5
H    -3.6    2.6    0.9
H    -4.2    1.4   -0.2
H    -2.9    3.1   -1.4
H    -2.0    1.6   -1.5
H    -0.3    2.4   -0.2
H    -2.1    5.8    1.0
H    -2.6    5.1   -0.4
H     0.5    3.6    1.5
N    -2.3    3.2    3.5
C    -3.0    4.0    4.5
H    -1.5    3.6    3.0
H    -3.5    4.8    3.9
H    -2.3    4.5    5.2
H    -3.7    3.4    5.0
