          35
 sphere cut out from bulk 
C    -2.2    0.7    0.6
C    -1.7    0.5    2.0
O    -1.7    1.4    2.8
H    -2.0   -0.1   -0.1
H    -1.7    1.6    0.2
H    -3.3    0.9    0.6
N    -1.3   -0.8    2.3
C    -1.0   -1.2    3.6
C     0.3   -2.0    3.8
O     0.6   -2.7    4.7
H    -1.5   -1.5    1.6
H    -0.9   -0.3    4.2
C    -2.2   -2.1    4.2
C    -3.5   -1.3    4.3
C    -3.5   -0.2    5.4
N    -4.7    0.6    5.4
C    -6.0    0.1    5.7
N    -6.0   -0.9    6.6
N    -7.1    0.6    5.2
H    -1.8   -2.5    5.2
H    -2.3   -3.0    3.6
H    -4.3   -2.0    4.6
H    -3.8   -0.9    3.4
H    -2.6    0.5    5.2
H    -3.3   -0.6    6.4
H    -4.7    1.3    4.7
H    -6.9   -1.1    6.9
H    -5.3   -0.8    7.4
H    -6.9    1.2    4.5
N     1.2   -1.8    2.7
C     2.6   -2.3    2.8
H     0.9   -1.1    2.0
H     2.6   -3.0    3.6
H     3.3   -1.5    2.9
H     2.8   -2.8    1.8
