          35
 sphere cut out from bulk 
C    -0.1   -1.4    1.2
C     0.2   -0.6    2.5
O     1.1    0.2    2.6
H    -0.3   -0.7    0.4
H    -0.9   -2.1    1.3
H     0.8   -1.9    0.9
N    -0.8   -0.8    3.4
C    -0.7   -0.1    4.7
C     0.3   -0.9    5.6
O     0.0   -1.7    6.4
H    -1.5   -1.5    3.4
H    -0.2    0.9    4.5
C    -2.0    0.2    5.4
C    -2.9   -0.9    5.9
C    -3.7   -1.8    4.9
N    -2.9   -2.6    3.9
C    -2.4   -3.9    4.3
N    -1.8   -3.9    5.5
N    -2.5   -4.9    3.5
H    -2.6    0.8    4.6
H    -1.8    0.9    6.2
H    -2.3   -1.6    6.6
H    -3.7   -0.4    6.5
H    -4.4   -2.4    5.5
H    -4.3   -1.1    4.3
H    -3.5   -2.7    3.1
H    -1.3   -4.8    5.7
H    -1.2   -3.1    5.8
H    -3.1   -4.7    2.7
N     1.6   -0.5    5.4
C     2.8   -1.2    6.0
H     1.8    0.0    4.5
H     2.4   -1.7    6.9
H     3.6   -0.6    6.2
H     3.1   -2.0    5.3
