          35
 sphere cut out from bulk 
C     0.6    0.6   -0.6
C     0.9    0.3    0.9
O     2.1    0.2    1.3
H     1.4    1.2   -1.0
H    -0.4    1.1   -0.7
H     0.5   -0.4   -1.1
N    -0.1    0.1    1.8
C    -1.5    0.6    1.7
C    -2.3   -0.2    0.6
O    -3.3    0.3    0.1
H     0.2   -0.0    2.8
H    -1.9    0.3    2.6
C    -1.6    2.1    1.5
C    -2.5    2.8    2.6
C    -2.1    2.6    4.0
N    -0.7    2.9    4.3
C     0.3    1.9    4.3
N     1.6    2.3    3.9
N     0.1    0.7    4.7
H    -2.0    2.3    0.5
H    -0.6    2.5    1.6
H    -3.5    2.4    2.5
H    -2.5    3.9    2.3
H    -2.2    1.6    4.4
H    -2.7    3.3    4.7
H    -0.3    3.8    4.0
H     2.2    1.6    3.9
H     1.6    2.9    3.1
H    -0.8    0.5    5.1
N    -1.9   -1.5    0.4
C    -2.6   -2.4   -0.5
H    -1.1   -1.8    0.8
H    -2.9   -3.3   -0.0
H    -2.0   -2.6   -1.4
H    -3.5   -1.8   -0.9
