          35
 sphere cut out from bulk 
C     0.0   -1.0    0.5
C    -0.1   -0.3    1.9
O     0.9    0.1    2.5
H     1.1   -1.1    0.3
H    -0.4   -0.4   -0.3
H    -0.5   -2.0    0.5
N    -1.4   -0.1    2.4
C    -2.6   -0.2    1.6
C    -3.1    1.0    0.8
O    -4.0    1.0    0.1
H    -1.4    0.5    3.2
H    -2.5   -1.0    0.8
C    -3.8   -0.7    2.5
C    -4.1    0.2    3.7
C    -3.4   -0.2    5.0
N    -3.2    0.8    6.0
C    -2.2    1.8    5.8
N    -2.1    2.8    6.8
N    -1.4    1.7    4.7
H    -3.5   -1.7    2.9
H    -4.6   -0.8    1.9
H    -5.2    0.2    3.9
H    -3.8    1.2    3.5
H    -2.4   -0.6    4.8
H    -3.9   -1.0    5.5
H    -4.0    1.2    6.5
H    -2.3    2.4    7.7
H    -1.3    3.4    6.7
H    -0.6    2.3    4.8
N    -2.3    2.2    1.1
C    -2.6    3.4    0.4
H    -1.6    2.1    1.7
H    -3.5    3.3   -0.2
H    -1.8    3.8   -0.2
H    -2.9    4.2    1.2
