          35
 sphere cut out from bulk 
C    -1.1   -0.2   -0.3
C    -0.6   -0.4    1.1
O     0.6   -0.3    1.3
H    -0.3   -0.5   -1.1
H    -1.3    0.9   -0.5
H    -2.0   -0.7   -0.6
N    -1.5   -0.8    2.0
C    -1.4   -0.8    3.4
C    -1.7    0.6    4.0
O    -1.7    1.6    3.2
H    -2.5   -0.7    1.6
H    -2.2   -1.4    3.8
C    -0.1   -1.4    4.0
C     1.0   -0.3    4.3
C     2.4   -1.0    4.5
N     3.4    0.0    4.8
C     4.6   -0.3    5.3
N     4.9   -1.6    5.6
N     5.6    0.6    5.5
H     0.3   -2.0    3.2
H    -0.3   -1.9    4.9
H     0.8    0.2    5.2
H     1.1    0.4    3.5
H     2.6   -1.5    3.5
H     2.3   -1.7    5.3
H     3.3    0.9    4.3
H     5.8   -1.8    5.9
H     4.5   -2.3    5.0
H     5.2    1.6    5.4
N    -2.1    0.8    5.3
C    -2.1   -0.3    6.3
H    -2.2    1.7    5.5
H    -2.8    0.1    7.1
H    -1.1   -0.5    6.7
H    -2.6   -1.2    5.9
