          35
 sphere cut out from bulk 
C    -0.2    1.1   -0.0
C    -0.2    0.4    1.3
O     0.9   -0.0    1.8
H     0.2    0.4   -0.8
H     0.4    2.0    0.1
H    -1.2    1.4   -0.3
N    -1.4    0.2    1.9
C    -1.5   -0.5    3.2
C    -1.5   -2.0    3.1
O    -2.5   -2.7    3.1
H    -2.2    0.4    1.4
H    -0.6   -0.2    3.8
C    -2.7    0.1    4.1
C    -4.1   -0.3    3.8
C    -4.6   -0.2    2.3
N    -6.0   -0.6    2.1
C    -6.3   -2.0    1.9
N    -5.2   -2.8    1.6
N    -7.5   -2.4    1.8
H    -2.6    1.2    4.0
H    -2.5   -0.1    5.1
H    -4.8    0.3    4.4
H    -4.3   -1.4    4.1
H    -4.0   -0.7    1.6
H    -4.6    0.9    2.0
H    -6.7   -0.1    2.5
H    -5.6   -3.8    1.5
H    -4.4   -2.7    2.2
H    -8.2   -1.7    1.9
N    -0.3   -2.5    2.9
C    -0.0   -3.9    2.6
H     0.5   -1.8    2.7
H     0.9   -4.2    3.1
H     0.1   -4.1    1.5
H    -0.9   -4.5    2.9
