          35
 sphere cut out from bulk 
C    -1.1    1.4    0.9
C    -0.7    1.0    2.3
O     0.4    1.2    2.8
H    -2.1    1.2    0.6
H    -0.4    0.8    0.2
H    -0.8    2.5    0.8
N    -1.7    0.4    3.0
C    -1.6   -0.2    4.3
C    -1.5    0.8    5.5
O    -2.3    0.7    6.4
H    -2.6    0.3    2.5
H    -2.6   -0.7    4.5
C    -0.6   -1.4    4.4
C    -0.5   -2.1    5.7
C     0.4   -3.3    5.8
N     1.8   -3.0    5.4
C     2.3   -3.0    4.2
N     1.8   -4.1    3.3
N     3.3   -2.3    3.7
H     0.4   -1.0    4.1
H    -0.9   -2.1    3.6
H    -1.5   -2.4    6.0
H    -0.2   -1.3    6.5
H     0.0   -4.0    5.0
H     0.4   -3.8    6.8
H     2.2   -2.2    6.0
H     2.3   -4.1    2.5
H     1.7   -5.0    3.8
H     3.5   -1.5    4.3
N    -0.4    1.6    5.4
C    -0.2    2.6    6.5
H     0.1    1.5    4.6
H     0.9    2.5    6.8
H    -0.8    2.4    7.3
H    -0.3    3.6    6.1
