          35
 sphere cut out from bulk 
C    -0.3   -1.1   -0.1
C    -0.2    0.1    0.8
O     0.6    1.0    0.6
H    -1.2   -1.2   -0.6
H    -0.1   -2.1    0.5
H     0.5   -1.0   -0.8
N    -1.1    0.1    1.9
C    -2.1   -0.8    2.2
C    -3.4   -0.6    1.2
O    -3.6    0.5    0.8
H    -1.1    1.0    2.4
H    -1.8   -1.8    1.9
C    -2.5   -0.9    3.7
C    -2.7    0.4    4.5
C    -3.8    1.4    4.0
N    -3.4    2.4    3.0
C    -2.4    3.2    3.2
N    -2.3    3.7    4.5
N    -1.5    3.7    2.4
H    -1.8   -1.5    4.2
H    -3.5   -1.5    3.7
H    -1.8    0.9    4.6
H    -3.0    0.1    5.5
H    -4.2    1.9    4.9
H    -4.7    0.8    3.6
H    -3.4    2.0    2.1
H    -1.6    4.5    4.6
H    -3.2    4.0    5.0
H    -1.6    3.1    1.5
N    -4.1   -1.7    0.9
C    -3.9   -3.1    1.2
H    -4.9   -1.4    0.3
H    -4.7   -3.6    0.8
H    -3.9   -3.3    2.3
H    -2.9   -3.4    0.8
