          35
 sphere cut out from bulk 
C     0.4    0.9   -0.2
C     0.3    0.1    1.1
O     1.3   -0.1    1.7
H     0.6    0.2   -1.0
H     1.3    1.6   -0.1
H    -0.5    1.5   -0.5
N    -0.9   -0.2    1.5
C    -2.3   -0.1    1.0
C    -2.5   -0.9   -0.2
O    -1.6   -1.2   -1.0
H    -0.8   -0.8    2.4
H    -2.9   -0.5    1.8
C    -2.8    1.4    0.8
C    -2.3    2.4    1.9
C    -2.4    2.0    3.4
N    -3.7    1.5    3.7
C    -4.0    0.2    4.0
N    -3.0   -0.5    4.6
N    -5.2   -0.3    3.6
H    -3.9    1.3    0.8
H    -2.5    1.7   -0.2
H    -2.8    3.3    1.7
H    -1.2    2.6    1.7
H    -2.1    2.9    4.0
H    -1.6    1.3    3.6
H    -4.5    2.0    3.3
H    -3.2   -1.4    4.9
H    -2.4   -0.0    5.3
H    -5.3   -1.2    4.0
N    -3.8   -1.3   -0.5
C    -5.0   -1.0    0.2
H    -3.9   -1.8   -1.4
H    -5.7   -1.9    0.2
H    -5.6   -0.2   -0.2
H    -4.9   -0.8    1.3
