          35
 sphere cut out from bulk 
C     0.5   -1.8   -0.2
C     0.6   -0.5    0.6
O     1.5    0.3    0.5
H     1.3   -2.4    0.1
H     0.6   -1.5   -1.2
H    -0.4   -2.3   -0.1
N    -0.5   -0.3    1.5
C    -0.5    0.8    2.5
C    -1.5    0.5    3.7
O    -1.1    0.7    4.8
H    -1.1   -1.1    1.7
H     0.5    0.7    3.0
C    -0.7    2.2    1.9
C    -0.1    3.3    2.8
C     1.4    3.6    2.6
N     2.3    2.4    2.6
C     2.7    1.7    3.7
N     2.5    2.4    4.9
N     3.4    0.6    3.7
H    -1.8    2.4    1.8
H    -0.2    2.2    0.9
H    -0.3    3.0    3.9
H    -0.7    4.2    2.6
H     1.8    4.3    3.3
H     1.5    4.1    1.6
H     2.2    1.8    1.8
H     2.7    1.7    5.7
H     1.5    2.7    5.1
H     3.6    0.4    2.7
N    -2.7    0.1    3.4
C    -3.5    0.2    2.1
H    -3.3   -0.0    4.2
H    -4.1    1.2    2.1
H    -4.2   -0.6    2.0
H    -2.8    0.3    1.3
