          35
 sphere cut out from bulk 
C     0.7    0.3    0.2
C     0.4    0.3    1.7
O     1.3    0.7    2.6
H     1.8   -0.1    0.1
H     0.7    1.3   -0.1
H     0.0   -0.3   -0.3
N    -0.8   -0.1    2.1
C    -1.3    0.1    3.5
C    -1.1    1.6    3.9
O    -1.6    2.5    3.2
H    -1.5   -0.2    1.4
H    -2.4    0.2    3.3
C    -1.1   -1.1    4.4
C     0.3   -1.8    4.3
C     0.4   -2.9    5.4
N     1.7   -3.6    5.2
C     2.2   -4.5    6.1
N     1.2   -5.2    6.8
N     3.5   -4.8    6.3
H    -1.9   -1.8    4.2
H    -1.3   -0.8    5.4
H     1.1   -1.1    4.4
H     0.4   -2.3    3.3
H    -0.4   -3.6    5.3
H     0.3   -2.4    6.4
H     2.4   -3.0    4.8
H     1.6   -5.9    7.4
H     0.4   -5.4    6.3
H     4.1   -4.1    5.8
N    -0.4    1.9    5.1
C     0.7    1.2    5.8
H    -0.4    2.9    5.2
H     0.3    0.3    6.3
H     1.1    1.9    6.5
H     1.5    0.9    5.0
