          35
 sphere cut out from bulk 
C    -0.7   -1.4    1.6
C    -1.3   -0.4    2.7
O    -0.7   -0.1    3.7
H    -0.1   -0.8    1.0
H    -1.4   -1.9    1.1
H    -0.0   -2.0    2.2
N    -2.5    0.1    2.4
C    -3.3    0.1    1.2
C    -3.9   -1.3    0.8
O    -4.1   -1.7   -0.3
H    -2.8    0.8    3.1
H    -4.2    0.7    1.4
C    -2.6    0.8   -0.1
C    -3.6    1.2   -1.1
C    -3.2    0.8   -2.5
N    -4.2    1.0   -3.5
C    -5.5    0.3   -3.6
N    -5.5   -0.9   -3.0
N    -6.4    0.9   -4.3
H    -1.9    0.0   -0.5
H    -2.0    1.6    0.3
H    -3.7    2.4   -1.1
H    -4.6    0.9   -0.9
H    -3.0   -0.3   -2.5
H    -2.3    1.3   -2.9
H    -4.3    1.9   -3.9
H    -6.4   -1.3   -2.9
H    -4.9   -1.1   -2.2
H    -7.2    0.2   -4.3
N    -4.1   -2.1    1.9
C    -4.7   -3.4    1.8
H    -3.8   -1.7    2.8
H    -5.6   -3.5    2.4
H    -4.0   -4.2    2.2
H    -4.9   -3.6    0.8
