          35
 sphere cut out from bulk 
C    -0.0    0.4    0.1
C     0.0    0.0    1.6
O     1.0   -0.5    2.1
H     0.8    1.2   -0.1
H    -0.9    0.9   -0.2
H     0.2   -0.5   -0.5
N    -1.1    0.3    2.3
C    -1.2    0.1    3.7
C    -1.1   -1.4    4.2
O    -0.5   -1.6    5.2
H    -1.9    0.8    1.8
H    -0.4    0.6    4.3
C    -2.6    0.7    4.2
C    -2.8    0.6    5.7
C    -4.2    1.2    6.2
N    -4.4    2.6    5.9
C    -5.0    3.0    4.8
N    -5.0    4.5    4.7
N    -5.6    2.2    3.9
H    -3.4    0.1    3.7
H    -2.7    1.7    3.9
H    -2.0    1.1    6.2
H    -2.8   -0.4    6.1
H    -4.3    1.0    7.2
H    -5.0    0.7    5.6
H    -3.7    3.2    6.2
H    -5.7    4.8    4.0
H    -5.2    4.9    5.6
H    -6.2    2.7    3.2
N    -1.6   -2.4    3.5
C    -2.3   -2.4    2.2
H    -1.4   -3.3    3.9
H    -2.9   -3.4    2.1
H    -1.6   -2.3    1.3
H    -3.1   -1.6    2.1
