          35
 sphere cut out from bulk 
C    -1.1    2.3   -1.0
C    -0.3    1.5    0.1
O     0.9    1.6    0.1
H    -1.1    3.4   -0.6
H    -2.1    2.0   -1.1
H    -0.6    2.3   -1.9
N    -0.9    0.7    0.9
C    -2.4    0.5    1.2
C    -3.2   -0.3    0.2
O    -4.4   -0.5    0.3
H    -0.3    0.2    1.6
H    -2.4   -0.2    2.1
C    -3.0    1.9    1.7
C    -4.5    2.0    2.0
C    -5.1    1.0    3.0
N    -4.2    0.5    4.1
C    -3.6   -0.7    4.1
N    -4.1   -1.7    3.3
N    -2.7   -1.1    5.0
H    -2.8    2.6    0.9
H    -2.4    2.1    2.6
H    -5.1    1.9    1.1
H    -4.6    3.0    2.4
H    -5.5    0.1    2.5
H    -6.0    1.5    3.5
H    -3.9    1.2    4.7
H    -3.6   -2.5    3.3
H    -4.4   -1.4    2.3
H    -2.5   -0.3    5.6
N    -2.5   -0.8   -0.9
C    -3.1   -1.6   -1.9
H    -1.5   -0.6   -0.9
H    -2.6   -2.6   -1.9
H    -2.9   -1.2   -2.9
H    -4.1   -1.7   -1.7
