          35
 sphere cut out from bulk 
C    -0.6   -0.4    0.5
C    -0.0    0.3    1.6
O     1.2    0.4    1.9
H     0.2   -1.0   -0.0
H    -1.1    0.2   -0.3
H    -1.4   -1.1    0.8
N    -0.9    1.0    2.4
C    -2.3    1.3    2.1
C    -2.7    2.3    1.0
O    -3.8    2.2    0.5
H    -0.4    1.6    3.1
H    -2.8    0.4    1.8
C    -3.1    1.6    3.4
C    -2.8    3.0    4.2
C    -1.6    3.0    5.0
N    -1.4    1.9    6.0
C    -2.3    1.7    7.0
N    -2.9    2.8    7.6
N    -2.6    0.5    7.5
H    -3.0    0.8    4.1
H    -4.2    1.6    3.1
H    -3.7    3.1    4.8
H    -2.8    3.8    3.5
H    -1.6    4.0    5.6
H    -0.6    3.0    4.4
H    -1.0    1.1    5.6
H    -2.2    3.6    7.7
H    -3.4    2.6    8.4
H    -2.2   -0.2    6.9
N    -1.8    3.3    0.7
C    -0.5    3.7    1.2
H    -2.2    3.9   -0.1
H     0.3    3.0    1.0
H    -0.6    3.9    2.3
H    -0.2    4.7    0.7
