          35
 sphere cut out from bulk 
C    -0.0    0.3    3.6
C    -0.2   -1.2    3.4
O     0.6   -2.1    3.9
H     0.8    0.4    4.4
H    -0.9    0.7    4.0
H     0.3    0.8    2.7
N    -1.2   -1.6    2.6
C    -2.1   -0.8    1.8
C    -3.4   -0.3    2.6
O    -4.2    0.5    2.1
H    -1.2   -2.6    2.4
H    -1.6    0.2    1.6
C    -2.6   -1.4    0.5
C    -3.4   -2.7    0.7
C    -3.8   -3.3   -0.7
N    -2.8   -3.8   -1.5
C    -2.0   -3.1   -2.4
N    -2.7   -2.0   -3.0
N    -0.7   -3.2   -2.6
H    -1.6   -1.6   -0.1
H    -3.1   -0.7   -0.1
H    -4.3   -2.5    1.2
H    -2.9   -3.5    1.2
H    -4.4   -2.6   -1.3
H    -4.5   -4.1   -0.5
H    -2.2   -4.6   -1.1
H    -2.1   -1.6   -3.7
H    -3.6   -2.2   -3.3
H    -0.3   -3.9   -2.0
N    -3.6   -0.9    3.8
C    -4.7   -0.6    4.7
H    -2.8   -1.6    4.1
H    -4.3   -0.2    5.7
H    -5.3   -1.5    4.9
H    -5.3    0.1    4.2
