          35
 sphere cut out from bulk 
C    -1.8    0.8   -0.5
C    -1.2    0.4    0.8
O    -0.0    0.2    1.0
H    -1.7   -0.0   -1.2
H    -1.3    1.7   -0.9
H    -2.9    1.1   -0.5
N    -2.1    0.4    1.9
C    -1.7    0.1    3.2
C    -2.2   -1.4    3.5
O    -3.4   -1.6    3.7
H    -3.1    0.6    1.7
H    -0.6    0.1    3.3
C    -2.3    1.1    4.3
C    -1.8    1.0    5.7
C    -2.1   -0.3    6.5
N    -3.6   -0.6    6.5
C    -4.5    0.3    7.1
N    -4.1    1.0    8.2
N    -5.7    0.5    6.6
H    -3.4    1.0    4.3
H    -2.1    2.1    3.9
H    -2.1    1.8    6.3
H    -0.7    1.1    5.7
H    -1.8   -0.2    7.5
H    -1.6   -1.2    6.1
H    -3.9   -1.0    5.7
H    -4.8    1.4    8.6
H    -3.5    0.4    8.8
H    -5.9   -0.0    5.7
N    -1.3   -2.4    3.4
C     0.1   -2.3    3.2
H    -1.7   -3.3    3.6
H     0.4   -1.6    2.5
H     0.5   -3.3    2.9
H     0.7   -2.1    4.2
