          35
 sphere cut out from bulk 
C    -0.2   -3.2   -0.8
C    -0.9   -2.3    0.2
O    -1.5   -1.2   -0.1
H    -1.0   -3.5   -1.6
H     0.2   -4.1   -0.3
H     0.5   -2.6   -1.3
N    -0.9   -2.7    1.5
C    -1.4   -1.9    2.6
C    -0.8   -2.5    3.9
O    -0.1   -3.5    3.9
H    -0.3   -3.5    1.8
H    -1.1   -0.9    2.5
C    -3.0   -1.9    2.7
C    -3.6   -3.3    2.8
C    -4.9   -3.3    3.7
N    -4.6   -3.1    5.1
C    -4.6   -1.9    5.8
N    -4.2   -2.0    7.1
N    -5.0   -0.7    5.3
H    -3.3   -1.4    1.8
H    -3.2   -1.2    3.5
H    -2.9   -4.0    3.3
H    -3.9   -3.7    1.8
H    -5.4   -4.2    3.6
H    -5.6   -2.5    3.4
H    -4.0   -3.8    5.5
H    -4.4   -1.1    7.6
H    -4.5   -2.8    7.6
H    -5.2   -0.7    4.4
N    -1.1   -1.9    5.0
C    -0.7   -2.3    6.3
H    -1.8   -1.1    5.0
H    -1.5   -2.3    7.0
H     0.1   -1.6    6.7
H    -0.2   -3.3    6.2
