          35
 sphere cut out from bulk 
C    -0.9   -1.9   -0.1
C    -0.4   -1.7    1.4
O     0.5   -2.3    1.8
H    -0.1   -1.5   -0.8
H    -1.9   -1.4   -0.3
H    -1.0   -3.0   -0.3
N    -1.1   -0.8    2.1
C    -0.7   -0.5    3.5
C    -0.5   -1.6    4.5
O     0.4   -1.6    5.3
H    -1.9   -0.3    1.7
H     0.3   -0.0    3.5
C    -1.7    0.6    4.0
C    -1.3    1.2    5.4
C    -1.9    0.4    6.6
N    -1.5    0.9    7.9
C    -0.3    0.8    8.4
N     0.4   -0.3    8.1
N     0.1    1.6    9.3
H    -2.7    0.2    4.1
H    -1.7    1.4    3.3
H    -1.7    2.2    5.5
H    -0.2    1.2    5.5
H    -1.7   -0.6    6.5
H    -3.0    0.5    6.5
H    -1.9    1.8    8.2
H     0.3   -0.7    7.1
H     1.4   -0.3    8.3
H     1.0    1.4    9.8
N    -1.4   -2.7    4.5
C    -2.6   -3.0    3.6
H    -1.2   -3.4    5.2
H    -3.2   -3.7    4.2
H    -2.3   -3.4    2.7
H    -3.2   -2.1    3.5
