          35
 sphere cut out from bulk 
C     0.9    0.9    0.2
C     0.6   -0.1    1.2
O     1.3   -1.1    1.5
H     2.0    0.8   -0.1
H     0.8    1.9    0.6
H     0.3    0.9   -0.7
N    -0.7   -0.0    1.8
C    -1.7    1.0    1.4
C    -1.7    2.3    2.3
O    -2.4    3.2    2.0
H    -0.9   -0.8    2.4
H    -1.6    1.3    0.4
C    -3.1    0.3    1.6
C    -3.5   -0.8    0.6
C    -3.5   -0.3   -0.9
N    -4.5    0.7   -1.2
C    -4.4    2.0   -0.8
N    -3.1    2.5   -1.2
N    -5.3    2.6   -0.2
H    -3.9    1.1    1.5
H    -3.2   -0.1    2.6
H    -4.4   -1.2    0.8
H    -2.7   -1.6    0.7
H    -3.7   -1.2   -1.5
H    -2.5    0.1   -1.2
H    -5.5    0.4   -0.9
H    -3.0    3.5   -0.9
H    -2.8    2.3   -2.1
H    -5.2    3.6   -0.2
N    -0.8    2.3    3.3
C    -0.6    3.4    4.2
H    -0.2    1.4    3.5
H    -0.8    3.1    5.2
H    -1.3    4.2    3.9
H     0.4    3.8    4.1
