          35
 sphere cut out from bulk 
C     0.8   -0.6   -0.1
C    -0.1   -0.6    1.2
O    -1.0   -1.4    1.4
H     1.3   -1.5   -0.1
H     1.5    0.2   -0.1
H     0.1   -0.5   -0.9
N     0.3    0.4    2.1
C    -0.3    0.4    3.5
C    -1.0    1.8    3.8
O    -0.6    2.5    4.7
H     1.1    0.9    2.0
H    -1.2   -0.3    3.4
C     0.6   -0.1    4.6
C     2.0    0.7    4.6
C     2.5    1.0    6.0
N     1.6    1.9    6.6
C     1.4    1.9    8.0
N     0.4    2.8    8.4
N     2.1    1.2    8.8
H     0.8   -1.1    4.4
H     0.1    0.1    5.5
H     1.9    1.6    4.0
H     2.8    0.1    4.0
H     3.5    1.4    6.0
H     2.5    0.0    6.6
H     0.9    2.3    6.1
H     0.0    2.6    9.3
H    -0.3    3.0    7.7
H     1.9    1.3    9.8
N    -2.0    2.2    2.9
C    -2.6    1.5    1.8
H    -2.3    3.1    3.2
H    -3.6    1.8    1.8
H    -2.5    0.4    1.9
H    -2.1    1.8    0.9
