          35
 sphere cut out from bulk 
C    -0.7    0.8   -0.3
C    -0.6    0.4    1.2
O     0.2    1.0    1.9
H    -1.4    0.2   -0.9
H     0.3    0.6   -0.8
H    -0.9    1.9   -0.4
N    -1.4   -0.6    1.5
C    -1.6   -1.3    2.8
C    -2.9   -0.9    3.6
O    -3.7   -1.8    3.9
H    -2.0   -1.0    0.8
H    -1.8   -2.3    2.5
C    -0.4   -1.3    3.7
C    -0.5   -2.1    5.0
C    -0.8   -3.6    4.8
N    -0.8   -4.4    6.0
C     0.3   -4.5    6.9
N     1.5   -4.6    6.2
N     0.1   -4.5    8.2
H    -0.1   -0.2    4.0
H     0.5   -1.7    3.2
H    -1.4   -1.7    5.6
H     0.4   -2.0    5.6
H    -0.0   -4.0    4.1
H    -1.8   -3.8    4.3
H    -1.7   -4.2    6.6
H     2.3   -4.9    6.8
H     1.5   -5.1    5.3
H     1.0   -4.8    8.7
N    -3.2    0.4    3.9
C    -2.4    1.6    3.7
H    -4.1    0.4    4.4
H    -2.5    2.2    4.6
H    -2.9    2.1    2.8
H    -1.4    1.4    3.5
