          35
 sphere cut out from bulk 
C     0.3    0.9    0.1
C     0.1    0.7    1.6
O     0.7    1.4    2.4
H     0.1    2.0   -0.1
H    -0.3    0.2   -0.5
H     1.4    0.8   -0.1
N    -0.8   -0.2    1.9
C    -1.3   -0.5    3.3
C    -0.3   -1.4    4.1
O    -0.7   -2.4    4.7
H    -1.3   -0.8    1.2
H    -1.3    0.5    3.8
C    -2.7   -1.0    3.3
C    -3.1   -2.1    2.2
C    -2.3   -3.4    2.3
N    -2.9   -4.5    1.4
C    -4.0   -5.2    1.7
N    -4.5   -5.9    0.6
N    -4.7   -5.2    2.8
H    -3.4   -0.2    3.1
H    -2.9   -1.4    4.3
H    -3.0   -1.7    1.2
H    -4.2   -2.3    2.4
H    -2.3   -3.8    3.3
H    -1.3   -3.3    2.1
H    -2.7   -4.3    0.4
H    -5.2   -6.5    0.9
H    -3.7   -6.4    0.2
H    -4.3   -4.5    3.5
N     0.9   -0.9    4.2
C     2.0   -1.6    4.9
H     1.1   -0.0    3.7
H     2.9   -1.7    4.3
H     1.6   -2.5    5.3
H     2.3   -1.0    5.8
