          35
 sphere cut out from bulk 
C     0.4    0.1   -0.0
C     0.2    0.5    1.4
O     1.1    0.8    2.2
H     1.2   -0.7   -0.1
H     0.8    1.0   -0.5
H    -0.5   -0.2   -0.5
N    -1.1    0.3    1.9
C    -1.4    0.5    3.3
C    -2.7   -0.3    3.5
O    -3.4   -0.6    2.6
H    -1.8   -0.1    1.3
H    -0.6    0.1    3.9
C    -1.6    2.0    3.7
C    -2.6    2.8    2.9
C    -4.0    3.0    3.6
N    -4.8    1.9    3.6
C    -5.4    1.3    4.7
N    -5.3    2.1    5.9
N    -6.0    0.1    4.8
H    -0.6    2.4    3.5
H    -1.8    2.1    4.8
H    -2.8    2.4    1.9
H    -2.2    3.8    2.7
H    -4.5    3.9    3.0
H    -3.8    3.4    4.6
H    -4.7    1.2    2.9
H    -5.9    1.7    6.6
H    -5.5    3.1    5.8
H    -5.9   -0.3    3.9
N    -3.0   -0.7    4.8
C    -2.3   -0.3    6.0
H    -4.0   -1.0    4.9
H    -2.5   -1.1    6.8
H    -2.7    0.6    6.5
H    -1.2   -0.2    5.9
