          35
 sphere cut out from bulk 
C     0.7   -0.4    0.3
C     0.4   -0.5    1.8
O     1.3   -0.9    2.6
H     1.6    0.3    0.1
H    -0.2    0.0   -0.3
H     1.0   -1.4   -0.1
N    -0.8   -0.2    2.2
C    -1.2   -0.2    3.6
C    -1.5   -1.6    4.2
O    -2.6   -1.9    4.6
H    -1.5    0.1    1.5
H    -0.3    0.2    4.1
C    -2.4    0.8    3.8
C    -3.8    0.5    3.4
C    -4.1   -0.1    2.0
N    -3.3    0.4    0.8
C    -3.6    1.6    0.2
N    -4.0    2.7    1.0
N    -3.3    1.7   -1.1
H    -2.0    1.8    3.2
H    -2.4    1.1    4.8
H    -4.4    1.4    3.5
H    -4.2   -0.2    4.1
H    -5.2   -0.1    1.8
H    -3.8   -1.2    2.1
H    -3.2   -0.3    0.1
H    -4.4    3.5    0.5
H    -4.4    2.4    1.9
H    -3.4    2.6   -1.4
N    -0.4   -2.4    4.2
C    -0.5   -3.7    4.7
H     0.4   -2.0    3.8
H     0.3   -3.9    5.5
H    -0.3   -4.4    3.9
H    -1.5   -3.9    5.1
