          35
 sphere cut out from bulk 
C    -3.4   -0.7    1.4
C    -2.5   -0.9    2.6
O    -1.2   -1.0    2.4
H    -3.4   -1.6    0.8
H    -3.0    0.1    0.8
H    -4.4   -0.4    1.7
N    -3.0   -1.0    3.8
C    -2.3   -1.1    5.0
C    -1.9   -2.6    5.3
O    -2.4   -3.3    6.2
H    -4.0   -0.9    3.9
H    -1.3   -0.6    4.9
C    -3.1   -0.5    6.2
C    -2.6    0.9    6.7
C    -2.6    2.0    5.7
N    -3.6    2.0    4.6
C    -5.0    2.0    4.9
N    -5.7    1.6    3.8
N    -5.6    2.4    6.0
H    -3.0   -1.2    7.0
H    -4.2   -0.5    6.0
H    -1.6    0.8    7.2
H    -3.3    1.1    7.5
H    -1.6    2.0    5.2
H    -2.6    3.0    6.2
H    -3.4    1.4    3.9
H    -5.4    2.1    2.9
H    -6.7    1.8    4.0
H    -4.9    2.5    6.8
N    -1.1   -3.1    4.4
C    -0.6   -4.5    4.4
H    -0.8   -2.5    3.6
H     0.5   -4.5    4.3
H    -1.0   -5.0    3.5
H    -0.9   -5.0    5.3
