          35
 sphere cut out from bulk 
C     0.1   -1.1    0.3
C    -0.0   -0.6    1.7
O     1.0   -0.5    2.4
H    -0.6   -0.5   -0.4
H    -0.3   -2.1    0.2
H     1.1   -1.0   -0.0
N    -1.2   -0.3    2.3
C    -2.6   -0.3    1.7
C    -2.9   -1.6    0.9
O    -3.2   -1.6   -0.3
H    -1.2   -0.0    3.2
H    -3.3   -0.3    2.5
C    -2.8    1.0    0.8
C    -4.3    1.3    0.6
C    -5.0    1.9    1.9
N    -6.4    2.2    1.6
C    -7.3    2.6    2.6
N    -6.7    3.4    3.6
N    -8.5    2.1    2.6
H    -2.4    0.8   -0.2
H    -2.3    1.8    1.3
H    -4.9    0.4    0.3
H    -4.4    2.0   -0.2
H    -4.5    2.8    2.1
H    -4.9    1.2    2.7
H    -6.8    1.5    1.0
H    -7.4    3.9    4.2
H    -6.0    4.0    3.2
H    -9.1    2.6    3.3
N    -2.9   -2.7    1.6
C    -2.6   -3.0    3.0
H    -3.1   -3.6    1.0
H    -3.0   -3.9    3.3
H    -3.1   -2.2    3.6
H    -1.6   -2.9    3.2
