          35
 sphere cut out from bulk 
C    -0.3   -0.5    0.2
C    -0.2   -0.1    1.7
O     0.8    0.5    2.2
H     0.4   -1.4    0.1
H     0.1    0.3   -0.4
H    -1.3   -0.8   -0.1
N    -1.3   -0.4    2.4
C    -1.5    0.1    3.8
C    -1.2    1.6    3.9
O    -2.0    2.3    3.2
H    -2.2   -0.7    1.9
H    -2.6    0.1    4.0
C    -0.9   -0.8    4.9
C     0.4   -1.6    4.6
C     0.3   -2.8    3.8
N     1.3   -2.8    2.8
C     1.4   -3.7    1.7
N     1.0   -5.0    2.0
N     1.8   -3.3    0.5
H    -1.7   -1.6    5.1
H    -0.9   -0.3    5.8
H     0.9   -1.8    5.6
H     1.1   -0.8    4.2
H    -0.7   -2.8    3.3
H     0.4   -3.7    4.4
H     1.6   -1.9    2.4
H     0.7   -5.6    1.3
H     0.5   -5.2    2.9
H     1.9   -4.1   -0.1
N    -0.3    2.2    4.7
C     0.9    1.7    5.2
H    -0.4    3.2    4.6
H     1.5    1.2    4.4
H     1.5    2.6    5.6
H     0.8    1.0    6.0
