          35
 sphere cut out from bulk 
C     0.6   -2.6    1.5
C     0.5   -2.0    2.9
O     0.8   -2.6    3.9
H     0.1   -3.6    1.5
H     1.7   -2.9    1.4
H     0.3   -2.0    0.7
N    -0.1   -0.8    2.9
C    -0.4   -0.1    4.1
C    -1.6    0.9    3.8
O    -1.8    1.3    2.6
H    -0.5   -0.3    2.0
H    -0.8   -0.8    4.8
C     0.8    0.7    4.7
C     1.3    1.9    4.0
C     1.9    1.7    2.6
N     2.6    2.9    2.2
C     3.2    3.0    0.9
N     3.8    1.8    0.5
N     3.3    4.1    0.2
H     1.6   -0.1    4.8
H     0.6    0.9    5.8
H     2.1    2.4    4.7
H     0.5    2.7    4.0
H     1.1    1.4    1.9
H     2.7    0.9    2.7
H     2.1    3.8    2.4
H     4.3    2.0   -0.3
H     4.2    1.2    1.1
H     2.8    4.9    0.6
N    -2.3    1.5    4.8
C    -2.2    1.2    6.2
H    -2.9    2.2    4.5
H    -1.5    1.8    6.7
H    -1.9    0.1    6.4
H    -3.2    1.3    6.6
