          35
 sphere cut out from bulk 
C    -0.3   -0.1   -0.4
C     0.0   -0.2    1.0
O     1.2   -0.3    1.4
H    -0.9    0.8   -0.7
H    -1.0   -1.0   -0.7
H     0.6   -0.2   -1.0
N    -1.0   -0.0    2.0
C    -2.4    0.0    1.9
C    -3.0   -1.3    1.4
O    -2.9   -2.3    2.1
H    -0.6   -0.2    2.9
H    -2.8    0.0    2.9
C    -2.9    1.4    1.3
C    -4.4    1.6    1.6
C    -4.7    2.1    3.0
N    -6.0    2.4    3.4
C    -6.8    3.3    2.7
N    -6.1    4.5    2.4
N    -8.1    3.2    2.5
H    -2.8    1.4    0.2
H    -2.3    2.2    1.7
H    -5.0    0.7    1.4
H    -4.8    2.4    0.9
H    -4.1    3.1    3.2
H    -4.3    1.4    3.8
H    -6.6    1.5    3.6
H    -6.8    5.2    2.1
H    -5.5    4.8    3.1
H    -8.4    2.3    2.6
N    -3.6   -1.5    0.1
C    -3.9   -0.6   -1.0
H    -3.9   -2.5    0.1
H    -4.7    0.1   -0.7
H    -4.3   -1.2   -1.8
H    -3.0   -0.1   -1.4
