          35
 sphere cut out from bulk 
C    -0.1   -0.6    0.4
C    -0.5   -0.8    1.9
O     0.3   -0.9    2.8
H    -0.1    0.5    0.2
H    -0.8   -1.0   -0.3
H     0.8   -1.0    0.3
N    -1.9   -0.8    2.2
C    -3.0   -0.6    1.4
C    -3.3   -1.6    0.3
O    -3.9   -1.4   -0.7
H    -2.0   -0.9    3.2
H    -3.9   -0.7    2.1
C    -3.1    0.9    0.8
C    -4.5    1.4    0.6
C    -5.2    1.8    1.9
N    -6.6    2.2    1.7
C    -7.4    2.8    2.6
N    -6.8    3.2    3.8
N    -8.7    3.2    2.4
H    -2.6    0.9   -0.2
H    -2.5    1.5    1.5
H    -5.1    0.7    0.1
H    -4.5    2.3   -0.0
H    -4.7    2.6    2.4
H    -5.2    0.9    2.6
H    -7.0    1.8    0.9
H    -7.5    3.5    4.5
H    -6.2    2.5    4.2
H    -8.9    3.0    1.4
N    -2.8   -2.9    0.6
C    -3.0   -4.0   -0.3
H    -2.3   -3.0    1.5
H    -3.5   -4.9    0.3
H    -2.0   -4.4   -0.6
H    -3.6   -3.7   -1.1
