          35
 sphere cut out from bulk 
C     0.1   -0.2    0.7
C    -0.4   -0.6    2.1
O     0.2   -1.3    2.9
H     1.1   -0.6    0.6
H    -0.0    0.8    0.5
H    -0.6   -0.8    0.0
N    -1.5    0.1    2.6
C    -2.4    1.0    1.9
C    -3.3    1.7    3.0
O    -3.5    1.2    4.1
H    -1.8   -0.1    3.6
H    -1.8    1.8    1.4
C    -3.3    0.3    0.8
C    -3.7   -1.1    1.0
C    -4.5   -1.5    2.3
N    -5.6   -0.5    2.7
C    -6.6   -0.0    1.9
N    -6.9   -0.9    0.8
N    -7.2    1.1    2.0
H    -2.8    0.4   -0.1
H    -4.2    0.9    0.7
H    -2.8   -1.8    1.0
H    -4.3   -1.4    0.1
H    -3.9   -1.6    3.1
H    -5.0   -2.5    2.2
H    -5.3    0.1    3.4
H    -7.8   -0.6    0.4
H    -6.9   -1.9    1.0
H    -6.8    1.6    2.8
N    -3.8    2.9    2.6
C    -4.7    3.6    3.4
H    -3.6    3.2    1.6
H    -4.8    3.1    4.3
H    -5.7    3.7    2.9
H    -4.3    4.6    3.6
