          35
 sphere cut out from bulk 
C    -0.4    0.2   -0.2
C    -0.3    0.4    1.3
O     0.8    0.6    1.8
H    -1.5    0.1   -0.6
H     0.2   -0.7   -0.5
H     0.0    1.1   -0.7
N    -1.5    0.3    2.0
C    -1.6    0.2    3.5
C    -3.0    0.1    3.9
O    -3.4   -0.5    5.0
H    -2.2   -0.2    1.5
H    -1.1   -0.7    3.8
C    -0.9    1.4    4.2
C    -1.3    2.8    3.8
C    -0.7    3.9    4.7
N    -1.3    3.8    6.0
C    -0.4    3.5    7.1
N    -1.1    3.6    8.3
N     0.8    3.3    6.9
H     0.2    1.3    4.1
H    -1.1    1.2    5.3
H    -2.4    2.9    3.8
H    -1.0    3.0    2.7
H    -0.9    4.9    4.2
H     0.3    3.8    4.7
H    -2.1    4.4    6.2
H    -0.6    3.3    9.1
H    -2.1    3.2    8.3
H     1.2    3.0    7.8
N    -4.0    0.7    3.1
C    -5.4    0.7    3.4
H    -3.6    1.3    2.4
H    -6.0    0.7    2.5
H    -5.6    1.7    4.0
H    -5.6   -0.1    4.1
