          35
 sphere cut out from bulk 
C    -2.8    1.4    1.7
C    -1.5    0.9    1.2
O    -0.7    1.6    0.7
H    -2.8    2.5    1.6
H    -3.0    1.2    2.8
H    -3.6    0.9    1.2
N    -1.2   -0.4    1.4
C    -2.0   -1.4    2.0
C    -1.8   -1.8    3.5
O    -2.7   -2.4    4.1
H    -0.2   -0.7    1.1
H    -3.0   -1.1    2.0
C    -1.9   -2.8    1.2
C    -0.5   -3.4    1.1
C     0.1   -3.5   -0.3
N     0.1   -2.3   -1.1
C     0.8   -1.1   -0.8
N     0.6   -0.0   -1.6
N     1.5   -1.1    0.3
H    -2.3   -2.5    0.2
H    -2.6   -3.5    1.6
H    -0.5   -4.4    1.5
H     0.2   -2.9    1.7
H    -0.5   -4.2   -0.9
H     1.1   -3.8   -0.2
H    -0.8   -2.1   -1.7
H     0.5    0.8   -1.1
H    -0.1   -0.1   -2.4
H     2.1   -0.3    0.3
N    -0.7   -1.4    4.2
C     0.5   -0.7    3.8
H    -0.8   -1.7    5.2
H     1.2   -0.8    4.6
H     0.4    0.3    3.6
H     1.0   -1.2    2.9
