          35
 sphere cut out from bulk 
C    -0.1    0.8    0.3
C     0.1    0.1    1.6
O     1.2    0.1    2.2
H     0.9    1.2    0.0
H    -0.8    1.6    0.4
H    -0.4    0.1   -0.5
N    -1.0   -0.7    2.1
C    -2.3   -0.7    1.6
C    -3.2    0.6    1.7
O    -4.1    0.7    0.9
H    -0.8   -1.1    3.0
H    -2.2   -0.8    0.5
C    -3.1   -1.9    2.1
C    -3.4   -1.9    3.6
C    -4.1   -3.1    4.1
N    -4.5   -3.2    5.5
C    -3.5   -3.1    6.5
N    -2.3   -3.8    6.2
N    -3.6   -2.5    7.6
H    -2.5   -2.8    1.9
H    -4.0   -2.0    1.5
H    -4.0   -1.0    3.8
H    -2.5   -1.8    4.2
H    -3.5   -4.0    3.9
H    -5.0   -3.3    3.5
H    -5.3   -2.6    5.7
H    -2.4   -4.7    5.8
H    -1.7   -3.8    7.0
H    -4.4   -1.9    7.7
N    -2.9    1.5    2.7
C    -2.0    1.6    3.8
H    -3.6    2.3    2.6
H    -2.0    0.6    4.4
H    -2.3    2.4    4.5
H    -1.0    1.7    3.5
