          35
 sphere cut out from bulk 
C     0.2   -0.1   -0.3
C    -0.0   -0.4    1.2
O     0.7   -1.2    1.8
H     1.2    0.1   -0.4
H    -0.5    0.7   -0.6
H    -0.1   -1.0   -0.8
N    -1.0    0.3    1.8
C    -1.6    0.2    3.2
C    -1.3    1.4    4.1
O    -2.2    1.9    4.7
H    -1.5    0.9    1.2
H    -2.7    0.3    3.0
C    -1.4   -1.2    3.8
C    -2.3   -1.4    5.1
C    -3.8   -1.8    4.8
N    -4.5   -1.1    3.8
C    -5.4   -0.0    4.1
N    -5.0    0.8    5.2
N    -6.6    0.2    3.6
H    -0.4   -1.3    4.1
H    -1.6   -2.0    3.1
H    -2.4   -0.4    5.7
H    -1.9   -2.1    5.7
H    -4.3   -1.9    5.7
H    -3.7   -2.9    4.4
H    -4.9   -1.6    3.0
H    -5.6    1.5    5.3
H    -4.0    1.1    5.1
H    -6.8   -0.6    3.0
N     0.0    1.8    4.3
C     1.3    1.3    3.7
H     0.1    2.5    4.9
H     2.1    1.4    4.5
H     1.5    1.9    2.8
H     1.2    0.2    3.4
