          35
 sphere cut out from bulk 
C    -0.2   -0.1    1.4
C    -0.5    0.6    2.7
O     0.0    1.7    3.0
H     0.6    0.4    0.9
H    -1.1    0.1    0.7
H    -0.1   -1.2    1.5
N    -1.3   -0.1    3.7
C    -1.8   -1.4    3.8
C    -0.6   -2.4    4.0
O     0.5   -2.3    3.6
H    -1.2    0.5    4.5
H    -2.4   -1.4    4.8
C    -2.7   -1.9    2.7
C    -4.2   -1.5    2.9
C    -4.5    0.0    3.0
N    -4.0    0.8    1.9
C    -4.3    0.6    0.5
N    -5.6    0.2    0.3
N    -3.3    0.6   -0.3
H    -2.7   -3.0    2.6
H    -2.4   -1.5    1.7
H    -4.6   -1.9    3.8
H    -4.8   -1.9    2.1
H    -4.1    0.5    3.9
H    -5.6    0.2    3.1
H    -3.0    1.1    2.0
H    -5.8    0.2   -0.7
H    -6.3    0.7    0.9
H    -3.7    0.5   -1.3
N    -1.0   -3.5    4.7
C    -0.1   -4.7    5.0
H    -1.9   -3.6    5.1
H    -0.4   -5.6    4.5
H    -0.0   -4.9    6.1
H     0.9   -4.4    4.6
