          35
 sphere cut out from bulk 
C    -0.9   -2.5    0.3
C    -0.3   -1.4    1.1
O     0.8   -1.4    1.5
H    -0.3   -3.5    0.6
H    -0.7   -2.4   -0.8
H    -1.9   -2.7    0.4
N    -1.1   -0.3    1.4
C    -2.6   -0.1    1.1
C    -3.5   -1.2    1.7
O    -4.2   -1.9    1.0
H    -0.7    0.4    1.9
H    -2.8    0.8    1.6
C    -2.9    0.1   -0.4
C    -2.3    1.4   -1.0
C    -0.8    1.3   -1.4
N    -0.3    2.5   -2.1
C     0.4    3.5   -1.6
N     0.2    3.7   -0.2
N     1.3    4.2   -2.2
H    -4.0    0.2   -0.5
H    -2.6   -0.7   -1.0
H    -2.5    2.3   -0.3
H    -2.8    1.6   -1.9
H    -0.6    0.4   -2.0
H    -0.2    1.2   -0.5
H    -0.1    2.3   -3.1
H     0.7    4.6    0.1
H    -0.8    3.8    0.0
H     1.5    3.9   -3.1
N    -3.4   -1.4    3.0
C    -2.6   -0.8    4.0
H    -4.0   -2.2    3.3
H    -3.0   -1.0    5.0
H    -2.6    0.3    3.9
H    -1.5   -1.1    4.0
