          35
 sphere cut out from bulk 
C     0.1    0.2    0.8
C    -0.3   -0.3    2.1
O     0.6   -0.6    3.0
H     1.2    0.2    0.7
H    -0.3    1.2    0.6
H    -0.3   -0.4   -0.0
N    -1.6   -0.4    2.5
C    -2.8   -0.2    1.6
C    -3.9    0.6    2.3
O    -5.1    0.3    2.2
H    -1.8   -0.9    3.4
H    -2.4    0.5    0.8
C    -3.3   -1.5    0.9
C    -3.2   -2.7    1.8
C    -4.2   -2.7    3.0
N    -3.7   -3.6    4.1
C    -2.7   -3.2    5.0
N    -2.4   -4.2    6.0
N    -2.1   -2.1    4.8
H    -2.7   -1.7    0.0
H    -4.3   -1.3    0.6
H    -2.2   -2.9    2.1
H    -3.5   -3.6    1.2
H    -5.2   -3.0    2.8
H    -4.2   -1.7    3.5
H    -4.4   -4.2    4.5
H    -1.6   -4.0    6.5
H    -2.5   -5.1    5.7
H    -1.3   -2.0    5.4
N    -3.5    1.8    2.9
C    -2.2    2.4    3.0
H    -4.3    2.2    3.3
H    -1.6    1.9    3.7
H    -2.4    3.5    3.4
H    -1.7    2.5    2.0
