          35
 sphere cut out from bulk 
C    -0.4   -0.5   -0.0
C    -0.1   -0.3    1.5
O     1.0   -0.2    1.9
H     0.2    0.3   -0.6
H    -1.4   -0.5   -0.3
H     0.1   -1.4   -0.3
N    -1.3   -0.1    2.2
C    -1.2    0.1    3.7
C    -1.1   -1.2    4.4
O    -2.1   -1.8    5.0
H    -2.2   -0.3    1.8
H    -0.3    0.7    3.8
C    -2.4    0.9    4.1
C    -2.5    2.3    3.5
C    -3.6    3.2    4.1
N    -3.5    3.5    5.5
C    -4.4    4.2    6.3
N    -5.7    4.0    5.9
N    -4.0    4.8    7.3
H    -2.4    1.0    5.2
H    -3.3    0.4    3.9
H    -2.5    2.3    2.5
H    -1.5    2.9    3.8
H    -4.5    2.6    3.9
H    -3.7    4.1    3.5
H    -2.5    3.7    5.8
H    -6.3    4.7    6.3
H    -5.9    3.8    4.9
H    -4.7    5.2    7.8
N     0.1   -1.8    4.3
C     0.5   -3.1    4.9
H     0.8   -1.3    3.7
H     0.6   -3.8    4.1
H    -0.4   -3.4    5.5
H     1.4   -3.1    5.5
