          35
 sphere cut out from bulk 
C    -0.5    0.9   -0.2
C    -0.3    0.4    1.2
O     0.8    0.5    1.8
H     0.5    1.3   -0.5
H    -1.2    1.6   -0.3
H    -0.7    0.1   -0.9
N    -1.4   -0.0    1.9
C    -2.8   -0.0    1.4
C    -3.6    0.9    2.4
O    -3.6    0.7    3.6
H    -1.3   -0.2    2.9
H    -2.8    0.3    0.4
C    -3.4   -1.4    1.5
C    -2.7   -2.5    0.7
C    -2.8   -2.4   -0.8
N    -4.1   -2.3   -1.4
C    -4.7   -1.1   -1.7
N    -6.1   -1.2   -1.8
N    -4.2    0.0   -1.9
H    -4.5   -1.3    1.2
H    -3.5   -1.7    2.6
H    -3.2   -3.5    1.0
H    -1.7   -2.6    1.0
H    -2.3   -3.2   -1.3
H    -2.2   -1.5   -1.2
H    -4.7   -3.1   -1.3
H    -6.6   -0.3   -2.0
H    -6.6   -1.7   -1.0
H    -3.2   -0.0   -2.0
N    -4.3    1.9    1.9
C    -4.3    2.4    0.5
H    -4.8    2.5    2.6
H    -3.5    3.1    0.3
H    -5.2    3.0    0.4
H    -4.4    1.6   -0.2
