          35
 sphere cut out from bulk 
C    -0.5   -0.8   -0.8
C    -0.2   -0.1    0.5
O     1.0    0.2    0.9
H     0.5   -1.3   -1.1
H    -0.8   -0.1   -1.5
H    -1.3   -1.6   -0.7
N    -1.2    0.2    1.4
C    -2.7   -0.1    1.2
C    -3.0   -1.6    1.2
O    -3.5   -2.1    0.2
H    -0.9    0.7    2.2
H    -3.1    0.2    2.2
C    -3.4    0.6    0.1
C    -3.0    2.1    0.0
C    -3.4    2.9    1.2
N    -3.2    4.4    1.1
C    -4.2    5.2    0.4
N    -3.7    6.5    0.2
N    -5.3    4.8   -0.0
H    -4.5    0.5    0.3
H    -3.2    0.1   -0.8
H    -3.6    2.5   -0.9
H    -2.0    2.2   -0.2
H    -2.8    2.6    2.1
H    -4.4    2.8    1.6
H    -2.3    4.7    1.0
H    -4.5    7.0   -0.1
H    -3.3    6.9    1.0
H    -5.5    3.8    0.1
N    -2.5   -2.4    2.2
C    -1.8   -2.0    3.4
H    -2.7   -3.4    2.1
H    -0.8   -1.9    3.2
H    -1.9   -2.8    4.2
H    -2.3   -1.1    3.9
