          35
 sphere cut out from bulk 
C    -2.2    1.9    4.0
C    -1.3    0.6    4.0
O    -0.1    0.6    4.2
H    -1.8    2.6    3.4
H    -2.1    2.3    5.1
H    -3.2    1.7    3.8
N    -2.0   -0.6    3.7
C    -1.4   -1.9    3.7
C    -0.5   -2.2    2.5
O    -0.6   -3.3    1.9
H    -3.0   -0.5    3.5
H    -0.7   -1.9    4.6
C    -2.5   -3.0    4.0
C    -3.8   -2.8    3.4
C    -3.9   -2.8    1.9
N    -3.4   -4.0    1.2
C    -3.6   -4.3   -0.1
N    -2.6   -5.1   -0.7
N    -4.7   -4.0   -0.8
H    -2.6   -3.0    5.1
H    -2.0   -3.9    3.8
H    -4.4   -2.0    3.8
H    -4.4   -3.7    3.7
H    -3.5   -1.9    1.5
H    -5.0   -2.7    1.6
H    -2.4   -4.0    1.5
H    -1.7   -4.9   -0.4
H    -2.8   -5.2   -1.6
H    -5.4   -3.5   -0.2
N     0.4   -1.3    2.2
C     1.3   -1.5    1.1
H     0.5   -0.5    2.9
H     1.9   -0.5    1.0
H     0.8   -1.6    0.2
H     2.0   -2.3    1.3
