          35
 sphere cut out from bulk 
C    -2.4   -0.1    0.1
C    -2.1    0.8    1.3
O    -2.2    2.0    1.3
H    -1.9    0.2   -0.8
H    -3.5    0.0   -0.1
H    -2.2   -1.2    0.3
N    -1.7    0.1    2.4
C    -1.2    0.8    3.6
C     0.3    0.7    3.7
O     0.9   -0.3    3.9
H    -1.5   -0.9    2.3
H    -1.5    1.9    3.3
C    -2.0    0.5    4.9
C    -1.4   -0.6    5.9
C    -1.7   -2.0    5.5
N    -1.0   -2.5    4.3
C    -1.6   -3.2    3.3
N    -2.5   -4.2    3.7
N    -1.3   -2.9    2.1
H    -3.0    0.3    4.7
H    -2.0    1.4    5.5
H    -1.9   -0.4    6.9
H    -0.4   -0.5    6.1
H    -2.8   -2.2    5.4
H    -1.5   -2.7    6.4
H    -0.3   -1.8    4.1
H    -3.2   -4.4    3.1
H    -2.7   -4.3    4.7
H    -1.6   -3.6    1.4
N     1.0    1.9    3.5
C     0.5    3.2    3.1
H     2.0    1.8    3.6
H     1.3    3.8    2.7
H     0.1    3.8    4.0
H    -0.3    3.1    2.4
