          35
 sphere cut out from bulk 
C    -1.0    0.1   -0.2
C    -0.6    0.2    1.2
O     0.5    0.2    1.6
H    -0.8   -0.9   -0.6
H    -0.4    0.8   -0.8
H    -2.1    0.3   -0.4
N    -1.7    0.3    2.1
C    -1.5    0.3    3.6
C    -0.3    1.1    4.1
O     0.5    0.6    4.9
H    -2.6    0.2    1.8
H    -2.4    0.8    4.0
C    -1.6   -1.2    4.2
C    -0.9   -2.3    3.4
C     0.6   -2.5    3.8
N     0.7   -2.9    5.2
C     1.8   -2.7    6.0
N     2.4   -1.5    5.7
N     2.2   -3.6    6.8
H    -2.7   -1.4    4.2
H    -1.3   -1.1    5.2
H    -1.0   -2.2    2.4
H    -1.5   -3.2    3.7
H     1.1   -1.6    3.7
H     1.0   -3.2    3.1
H     0.4   -3.9    5.3
H     3.1   -1.2    6.4
H     1.8   -0.7    5.5
H     3.0   -3.3    7.4
N    -0.2    2.4    3.8
C    -1.0    3.2    2.8
H     0.6    2.8    4.1
H    -0.9    4.2    3.1
H    -2.1    2.9    2.9
H    -0.7    3.0    1.8
