          35
 sphere cut out from bulk 
C    -0.2   -0.0    0.2
C    -0.3    0.5    1.6
O     0.4    1.4    2.0
H     0.0    0.8   -0.5
H    -1.0   -0.6   -0.2
H     0.7   -0.7    0.2
N    -1.3    0.0    2.4
C    -2.4   -1.0    2.2
C    -1.9   -2.3    1.6
O    -0.7   -2.6    1.7
H    -1.3    0.4    3.3
H    -2.6   -1.3    3.2
C    -3.7   -0.3    1.7
C    -3.7    0.4    0.3
C    -3.7   -0.5   -0.9
N    -3.8    0.2   -2.2
C    -5.0    0.7   -2.7
N    -4.8    1.5   -3.8
N    -6.2    0.6   -2.2
H    -4.0    0.4    2.4
H    -4.5   -1.1    1.7
H    -2.8    1.0    0.2
H    -4.5    1.1    0.2
H    -4.6   -1.2   -0.9
H    -2.9   -1.2   -1.0
H    -3.0    0.7   -2.5
H    -5.7    1.8   -4.2
H    -4.2    1.1   -4.5
H    -6.2    0.1   -1.3
N    -2.8   -3.1    1.1
C    -2.5   -4.4    0.5
H    -3.8   -2.8    1.0
H    -3.1   -5.2    1.1
H    -1.5   -4.6    0.6
H    -2.8   -4.5   -0.5
