          35
 sphere cut out from bulk 
C    -0.8   -0.5   -0.5
C    -0.4    0.1    0.9
O     0.8    0.2    1.2
H     0.2   -0.7   -1.0
H    -1.4    0.1   -1.1
H    -1.3   -1.5   -0.3
N    -1.4    0.6    1.7
C    -2.9    0.3    1.5
C    -3.6    1.5    2.1
O    -4.1    1.5    3.2
H    -1.1    0.9    2.6
H    -3.0    0.3    0.4
C    -3.3   -1.0    2.1
C    -4.7   -1.4    1.8
C    -5.0   -2.9    1.8
N    -4.2   -3.7    0.8
C    -2.9   -4.1    1.0
N    -2.6   -4.6    2.2
N    -2.1   -3.9   -0.0
H    -3.2   -0.9    3.2
H    -2.6   -1.8    1.8
H    -5.5   -0.9    2.4
H    -5.0   -1.1    0.7
H    -6.0   -3.1    1.7
H    -4.7   -3.3    2.8
H    -4.3   -3.3   -0.1
H    -1.7   -5.0    2.3
H    -3.4   -5.2    2.6
H    -1.2   -4.4    0.1
N    -3.7    2.7    1.3
C    -3.0    2.9   -0.0
H    -4.1    3.5    1.7
H    -3.3    3.9   -0.3
H    -3.4    2.2   -0.8
H    -1.9    2.8    0.0
