          35
 sphere cut out from bulk 
C     0.3   -0.5    0.9
C    -0.2   -0.5    2.4
O     0.6   -0.3    3.3
H    -0.5   -0.6    0.2
H     1.0   -1.2    0.8
H     0.7    0.5    0.7
N    -1.5   -0.7    2.6
C    -2.1   -0.7    3.9
C    -1.9   -2.1    4.6
O    -2.9   -2.9    4.6
H    -2.1   -0.9    1.8
H    -1.6    0.1    4.5
C    -3.6   -0.3    3.8
C    -4.2    0.1    5.2
C    -5.7    0.4    5.1
N    -6.3    0.8    6.4
C    -6.2    2.1    6.8
N    -6.9    2.2    8.0
N    -5.7    3.1    6.3
H    -4.2   -1.1    3.4
H    -3.7    0.6    3.2
H    -3.7    0.9    5.6
H    -4.0   -0.8    5.9
H    -6.2   -0.6    4.8
H    -5.9    1.1    4.3
H    -7.1    0.2    6.7
H    -6.8    3.2    8.4
H    -6.7    1.5    8.7
H    -5.3    2.9    5.3
N    -0.7   -2.3    5.0
C    -0.3   -3.5    5.6
H     0.0   -1.6    4.8
H     0.3   -3.4    6.5
H     0.3   -4.1    4.9
H    -1.2   -4.1    5.8
