          35
 sphere cut out from bulk 
C     0.1    0.2   -0.0
C     0.1    0.3    1.5
O     1.1    0.3    2.1
H     1.1    0.1   -0.3
H    -0.5   -0.6   -0.4
H    -0.3    1.2   -0.5
N    -1.1    0.5    2.1
C    -2.5    0.3    1.8
C    -2.9   -1.2    1.5
O    -2.1   -2.0    1.1
H    -1.0    0.5    3.2
H    -3.1    0.6    2.6
C    -3.0    1.2    0.6
C    -3.4    0.6   -0.7
C    -3.7    1.6   -1.8
N    -2.5    2.4   -2.3
C    -2.1    3.5   -1.7
N    -3.1    4.3   -1.2
N    -0.9    4.0   -1.6
H    -2.2    2.0    0.4
H    -3.9    1.8    1.0
H    -4.3   -0.1   -0.6
H    -2.6   -0.1   -1.1
H    -4.5    2.3   -1.5
H    -4.1    1.1   -2.7
H    -1.8    1.8   -2.7
H    -2.7    5.2   -0.9
H    -3.9    4.5   -1.8
H    -0.2    3.2   -1.9
N    -4.2   -1.6    1.8
C    -5.3   -0.7    2.3
H    -4.3   -2.5    1.5
H    -5.0   -0.2    3.2
H    -6.1   -1.4    2.5
H    -5.6   -0.0    1.5
