          35
 sphere cut out from bulk 
C    -0.0    0.1   -0.1
C    -0.1    0.2    1.4
O     0.8    0.8    2.0
H     0.9   -0.3   -0.4
H    -0.1    1.1   -0.6
H    -0.8   -0.5   -0.6
N    -1.2   -0.3    2.0
C    -1.6   -0.3    3.4
C    -2.4    1.0    3.7
O    -3.6    0.9    3.5
H    -1.9   -0.7    1.3
H    -2.4   -1.1    3.5
C    -0.5   -0.7    4.3
C    -0.9   -0.8    5.8
C     0.2   -1.3    6.8
N    -0.1   -1.2    8.2
C    -0.1    0.0    8.8
N    -0.6   -0.1   10.1
N     0.4    1.1    8.4
H     0.4   -0.1    4.3
H    -0.1   -1.7    4.0
H    -1.8   -1.5    5.9
H    -1.3    0.2    6.2
H     1.1   -0.8    6.6
H     0.4   -2.4    6.5
H    -0.9   -1.8    8.5
H    -0.5    0.8   10.6
H    -0.4   -0.9   10.6
H     0.7    1.1    7.4
N    -1.8    2.1    4.1
C    -0.5    2.5    4.4
H    -2.5    2.9    4.3
H    -0.3    3.6    4.3
H     0.2    2.0    3.8
H    -0.2    2.2    5.5
