          35
 sphere cut out from bulk 
C     0.8   -0.2    1.4
C     0.1    1.1    0.9
O     0.8    1.9    0.3
H     0.4   -1.1    0.8
H     0.5   -0.5    2.4
H     1.8   -0.1    1.3
N    -1.2    1.2    1.2
C    -2.1    0.4    2.0
C    -2.3   -1.0    1.5
O    -2.4   -1.9    2.3
H    -1.6    2.2    1.0
H    -1.7    0.2    3.0
C    -3.5    1.1    2.2
C    -3.5    2.5    2.9
C    -3.5    3.7    2.0
N    -2.3    4.0    1.3
C    -1.2    4.6    1.9
N    -0.1    4.7    1.1
N    -1.2    5.1    3.1
H    -4.1    0.4    2.8
H    -4.0    1.2    1.2
H    -2.6    2.5    3.6
H    -4.4    2.5    3.5
H    -3.8    4.6    2.6
H    -4.3    3.6    1.2
H    -2.4    4.3    0.3
H     0.7    5.1    1.6
H     0.2    3.9    0.6
H    -2.1    5.0    3.6
N    -2.5   -1.2    0.2
C    -2.5   -0.3   -1.0
H    -2.6   -2.2   -0.0
H    -2.9   -0.8   -1.8
H    -1.4   -0.0   -1.3
H    -3.0    0.6   -0.8
