          35
 sphere cut out from bulk 
C    -0.0    0.5    1.2
C    -0.4    0.1    2.6
O     0.4    0.1    3.5
H     1.1    0.7    1.2
H    -0.5    1.5    0.9
H    -0.3   -0.2    0.5
N    -1.7   -0.2    2.8
C    -2.8   -0.2    1.9
C    -4.1    0.2    2.6
O    -4.4   -0.2    3.7
H    -2.0   -0.4    3.8
H    -2.6    0.4    1.0
C    -3.0   -1.7    1.3
C    -4.0   -1.9    0.2
C    -5.3   -2.7    0.6
N    -6.0   -2.2    1.7
C    -7.0   -1.2    1.6
N    -7.5   -0.8    2.9
N    -7.4   -0.8    0.5
H    -3.2   -2.3    2.2
H    -2.0   -2.0    0.9
H    -3.6   -2.4   -0.7
H    -4.4   -0.9   -0.2
H    -5.0   -3.7    0.8
H    -6.0   -2.7   -0.2
H    -5.6   -2.4    2.7
H    -8.1    0.0    2.8
H    -6.8   -0.7    3.6
H    -8.1   -0.1    0.5
N    -4.8    1.2    2.0
C    -4.8    1.7    0.6
H    -5.7    1.4    2.5
H    -5.2    2.8    0.7
H    -5.5    1.2   -0.0
H    -3.8    1.8    0.2
