          35
 sphere cut out from bulk 
C    -0.2   -0.7    2.1
C     0.3    0.5    1.4
O     1.6    0.7    1.3
H     0.6   -1.4    2.4
H    -1.0   -1.2    1.6
H    -0.7   -0.4    3.1
N    -0.5    1.4    0.8
C    -2.0    1.3    0.8
C    -2.4    2.1   -0.5
O    -1.7    3.0   -1.0
H    -0.1    2.1    0.2
H    -2.3    0.3    0.6
C    -2.7    1.8    2.0
C    -2.3    3.2    2.4
C    -3.1    3.8    3.7
N    -4.5    4.0    3.5
C    -5.4    3.0    3.9
N    -6.7    3.4    3.5
N    -5.1    1.9    4.5
H    -2.4    1.1    2.9
H    -3.8    1.7    1.9
H    -2.5    3.9    1.6
H    -1.2    3.3    2.6
H    -2.6    4.7    4.0
H    -3.0    3.1    4.5
H    -4.8    4.6    2.7
H    -7.5    2.8    3.9
H    -7.0    4.4    3.6
H    -5.9    1.4    4.8
N    -3.7    1.9   -0.9
C    -4.3    2.7   -1.9
H    -4.3    1.2   -0.4
H    -4.7    2.0   -2.7
H    -3.6    3.4   -2.3
H    -5.2    3.2   -1.6
