          35
 sphere cut out from bulk 
C    -0.7   -1.6    0.1
C    -0.1   -0.9    1.3
O     1.1   -1.1    1.7
H     0.1   -2.3   -0.3
H    -0.9   -0.8   -0.7
H    -1.6   -2.1    0.3
N    -0.8    0.1    1.9
C    -2.2    0.4    1.6
C    -2.3    1.9    1.9
O    -2.2    2.4    3.0
H    -0.4    0.5    2.8
H    -2.4    0.2    0.6
C    -3.2   -0.4    2.5
C    -4.7   -0.3    2.0
C    -5.4    1.0    2.2
N    -6.8    1.0    1.7
C    -7.1    1.1    0.4
N    -8.4    0.9    0.1
N    -6.2    1.4   -0.5
H    -3.2   -0.0    3.5
H    -2.9   -1.4    2.5
H    -5.2   -1.1    2.5
H    -4.7   -0.6    0.9
H    -4.9    1.8    1.7
H    -5.5    1.2    3.3
H    -7.4    0.3    2.2
H    -8.7    1.2   -0.8
H    -9.1    1.3    0.8
H    -6.5    1.6   -1.4
N    -2.6    2.8    0.8
C    -2.8    2.4   -0.6
H    -2.6    3.8    1.1
H    -2.0    1.8   -1.0
H    -2.9    3.3   -1.1
H    -3.8    1.9   -0.7
