          35
 sphere cut out from bulk 
C    -2.7    0.9    0.5
C    -1.8    0.8    1.7
O    -0.8    0.1    1.7
H    -2.1    1.3   -0.3
H    -3.5    1.7    0.7
H    -3.1   -0.0    0.2
N    -2.2    1.4    2.8
C    -1.4    1.4    4.1
C    -1.7    0.1    4.9
O    -2.3    0.2    6.0
H    -3.1    1.8    2.9
H    -0.3    1.2    3.7
C    -1.4    2.7    4.9
C    -2.9    3.2    5.2
C    -3.3    4.3    4.1
N    -4.8    4.4    4.0
C    -5.5    3.5    3.4
N    -6.9    3.7    3.6
N    -5.0    2.5    2.8
H    -0.8    3.5    4.4
H    -0.9    2.5    5.8
H    -2.9    3.7    6.2
H    -3.6    2.4    5.2
H    -3.0    4.0    3.1
H    -2.9    5.2    4.3
H    -5.2    4.9    4.8
H    -7.5    3.1    3.0
H    -7.2    4.7    3.6
H    -5.7    1.9    2.3
N    -1.4   -1.0    4.3
C    -1.7   -2.3    4.9
H    -1.0   -0.9    3.4
H    -2.5   -2.9    4.3
H    -2.1   -2.2    5.9
H    -0.8   -2.9    4.9
