          35
 sphere cut out from bulk 
C    -0.5   -0.0   -0.1
C    -0.3    0.0    1.4
O     0.8    0.0    1.9
H    -0.1   -0.9   -0.5
H     0.1    0.8   -0.6
H    -1.6    0.0   -0.5
N    -1.5    0.1    2.0
C    -1.8    0.1    3.5
C    -2.2    1.4    4.0
O    -3.4    1.5    4.5
H    -2.4    0.1    1.5
H    -2.7   -0.5    3.6
C    -0.7   -0.6    4.4
C    -1.2   -0.9    5.8
C    -0.2   -1.5    6.7
N     0.3   -2.8    6.2
C     1.6   -2.9    5.8
N     1.9   -4.2    5.4
N     2.4   -1.9    5.7
H     0.2    0.0    4.4
H    -0.4   -1.5    3.9
H    -2.1   -1.5    5.7
H    -1.6    0.1    6.3
H    -0.6   -1.6    7.7
H     0.7   -0.8    6.8
H    -0.1   -3.6    6.6
H     2.8   -4.3    4.9
H     1.2   -4.7    5.0
H     3.3   -2.1    5.2
N    -1.4    2.5    4.0
C    -0.1    2.7    3.4
H    -1.9    3.4    4.4
H     0.5    3.3    4.0
H    -0.2    3.2    2.4
H     0.4    1.7    3.2
