          35
 sphere cut out from bulk 
C     0.4   -1.9    0.7
C     0.7   -1.2    2.0
O     1.6   -1.6    2.7
H    -0.5   -2.5    0.7
H     1.3   -2.5    0.4
H     0.3   -1.2   -0.2
N    -0.1   -0.2    2.4
C    -1.4    0.1    1.8
C    -1.7    1.6    2.2
O    -1.2    2.1    3.2
H     0.1    0.2    3.3
H    -1.4    0.0    0.7
C    -2.5   -0.8    2.4
C    -2.5   -0.9    4.0
C    -1.6   -2.1    4.4
N    -1.3   -2.1    5.8
C    -0.4   -1.2    6.4
N     0.6   -0.7    5.5
N    -0.4   -0.8    7.6
H    -2.5   -1.8    2.0
H    -3.5   -0.4    2.1
H    -3.5   -1.0    4.4
H    -2.0   -0.0    4.4
H    -0.7   -2.2    3.8
H    -2.2   -3.1    4.2
H    -2.0   -2.4    6.5
H     1.0   -1.3    4.8
H     1.3   -0.1    6.0
H    -1.2   -1.1    8.1
N    -2.6    2.3    1.4
C    -3.1    1.8    0.1
H    -2.8    3.2    1.7
H    -3.8    0.9    0.2
H    -2.4    1.6   -0.7
H    -3.8    2.6   -0.3
