          35
 sphere cut out from bulk 
C    -0.3   -0.3    0.2
C    -0.2    0.1    1.6
O     0.8    0.4    2.1
H    -1.3   -0.6   -0.2
H     0.4   -1.1   -0.0
H     0.1    0.6   -0.4
N    -1.4   -0.1    2.3
C    -1.5    0.1    3.8
C    -0.6    1.2    4.4
O     0.1    1.1    5.3
H    -2.2   -0.4    1.8
H    -2.6    0.5    3.9
C    -1.4   -1.2    4.6
C    -0.0   -1.9    4.4
C     0.1   -3.2    5.2
N    -0.8   -4.3    4.7
C    -2.1   -4.5    5.3
N    -2.8   -5.5    4.5
N    -2.7   -4.0    6.3
H    -2.2   -1.9    4.3
H    -1.5   -0.9    5.6
H     0.8   -1.3    4.7
H     0.1   -2.1    3.3
H    -0.1   -3.1    6.2
H     1.1   -3.6    5.1
H    -0.7   -4.6    3.8
H    -3.6   -5.8    5.0
H    -2.2   -6.3    4.3
H    -2.1   -3.2    6.7
N    -0.8    2.5    3.9
C    -1.5    3.0    2.7
H    -0.2    3.2    4.3
H    -1.0    2.8    1.7
H    -1.7    4.0    2.8
H    -2.5    2.4    2.6
