          35
 sphere cut out from bulk 
C    -0.1    0.8   -0.2
C     0.2    0.1    1.1
O     1.4   -0.1    1.4
H     0.8    1.1   -0.7
H    -0.8    1.7   -0.0
H    -0.7    0.1   -0.9
N    -0.8   -0.3    1.9
C    -2.3   -0.2    1.6
C    -2.9    1.1    2.1
O    -4.1    1.3    1.9
H    -0.5   -0.9    2.7
H    -2.4   -0.2    0.5
C    -3.0   -1.5    2.2
C    -2.7   -2.8    1.4
C    -3.2   -4.0    2.1
N    -2.4   -4.3    3.4
C    -2.9   -5.2    4.3
N    -1.9   -5.4    5.3
N    -4.0   -5.8    4.4
H    -4.1   -1.3    2.2
H    -2.7   -1.6    3.3
H    -1.6   -2.9    1.2
H    -3.2   -2.7    0.4
H    -3.2   -4.9    1.5
H    -4.2   -3.9    2.5
H    -1.4   -4.3    3.2
H    -2.3   -6.0    6.1
H    -1.4   -4.6    5.7
H    -4.5   -5.7    3.5
N    -2.1    1.9    2.9
C    -2.6    3.1    3.4
H    -1.2    1.6    3.0
H    -3.7    3.2    3.2
H    -2.0    4.0    3.0
H    -2.5    3.1    4.5
