          35
 sphere cut out from bulk 
C     0.3    0.1    0.6
C    -0.0   -0.0    2.1
O     0.9   -0.0    2.9
H     0.2   -1.0    0.2
H     1.3    0.4    0.5
H    -0.4    0.7    0.0
N    -1.3   -0.1    2.5
C    -2.6    0.0    1.8
C    -2.6   -0.9    0.6
O    -2.9   -0.6   -0.6
H    -1.4   -0.1    3.5
H    -3.4   -0.3    2.5
C    -3.0    1.4    1.3
C    -3.0    2.4    2.5
C    -3.4    3.9    2.0
N    -3.4    4.8    3.1
C    -4.0    6.0    3.1
N    -4.8    6.3    2.0
N    -4.0    6.9    4.1
H    -3.9    1.4    0.8
H    -2.2    1.8    0.6
H    -2.0    2.5    3.0
H    -3.7    2.1    3.2
H    -4.4    3.8    1.6
H    -2.7    4.2    1.2
H    -2.7    4.7    3.8
H    -5.1    7.3    2.1
H    -4.4    6.1    1.1
H    -3.5    6.5    4.9
N    -2.5   -2.3    0.8
C    -2.2   -2.9    2.1
H    -2.5   -2.9    0.0
H    -2.5   -4.0    2.0
H    -2.9   -2.5    2.9
H    -1.2   -2.9    2.5
