          35
 sphere cut out from bulk 
C     1.1   -0.8   -0.0
C     0.6   -0.9    1.4
O     1.0   -1.8    2.2
H     2.1   -0.7   -0.0
H     0.6    0.1   -0.6
H     0.8   -1.7   -0.5
N    -0.4   -0.0    1.8
C    -1.0   -0.1    3.1
C    -2.4   -0.7    2.9
O    -3.3   -0.0    2.4
H    -0.8    0.6    1.1
H    -0.4   -0.7    3.7
C    -1.1    1.3    3.8
C     0.3    1.9    4.1
C     0.2    3.4    4.6
N    -0.1    4.2    3.5
C    -0.4    5.6    3.5
N    -0.8    6.0    4.8
N    -0.2    6.3    2.5
H    -1.7    1.2    4.7
H    -1.6    2.0    3.1
H     0.9    1.8    3.2
H     0.7    1.3    4.9
H     1.2    3.6    5.0
H    -0.5    3.5    5.4
H     0.3    4.0    2.6
H    -0.7    7.0    4.9
H    -0.5    5.5    5.6
H    -0.5    7.3    2.6
N    -2.6   -1.9    3.4
C    -1.7   -2.8    4.1
H    -3.6   -2.2    3.3
H    -1.6   -2.6    5.2
H    -0.7   -2.8    3.6
H    -2.1   -3.8    4.1
