          35
 sphere cut out from bulk 
C    -0.3   -0.5    0.0
C    -0.1   -0.1    1.5
O     1.1   -0.2    2.0
H    -1.2    0.0   -0.4
H    -0.5   -1.5   -0.0
H     0.6   -0.2   -0.5
N    -1.1    0.3    2.3
C    -2.5    0.5    2.0
C    -3.1   -0.6    1.1
O    -2.9   -1.8    1.3
H    -0.8    0.4    3.2
H    -3.0    0.3    3.0
C    -2.8    2.0    1.6
C    -2.1    2.6    0.4
C    -2.4    4.0    0.2
N    -2.1    5.0    1.3
C    -3.0    5.2    2.3
N    -4.3    5.4    1.9
N    -2.5    5.3    3.5
H    -2.5    2.6    2.5
H    -3.9    2.1    1.5
H    -2.3    2.0   -0.5
H    -1.0    2.5    0.6
H    -3.5    4.2   -0.1
H    -1.9    4.4   -0.7
H    -1.1    4.8    1.6
H    -4.9    5.7    2.7
H    -4.4    5.9    1.1
H    -3.2    5.6    4.2
N    -4.0   -0.2    0.2
C    -4.8   -1.1   -0.7
H    -4.2    0.8    0.1
H    -4.6   -0.9   -1.8
H    -5.9   -1.1   -0.5
H    -4.4   -2.1   -0.4
