          35
 sphere cut out from bulk 
C     0.1   -0.0    0.0
C     0.1   -0.1    1.5
O     1.1   -0.3    2.1
H     1.0   -0.3   -0.3
H    -0.1    1.0   -0.3
H    -0.7   -0.7   -0.4
N    -1.1    0.0    2.3
C    -2.5    0.1    1.9
C    -3.0   -1.3    1.4
O    -2.4   -2.1    0.7
H    -0.9   -0.1    3.2
H    -3.0    0.3    2.8
C    -2.9    1.1    0.8
C    -2.5    2.5    1.2
C    -2.9    3.6    0.2
N    -2.5    4.9    0.4
C    -1.2    5.3   -0.0
N    -0.8    6.6    0.4
N    -0.3    4.7   -0.7
H    -4.0    1.1    0.7
H    -2.5    0.8   -0.1
H    -1.4    2.6    1.3
H    -2.9    2.8    2.2
H    -4.0    3.6    0.2
H    -2.6    3.3   -0.8
H    -2.8    5.4    1.2
H     0.0    6.9    0.0
H    -1.6    7.3    0.3
H    -0.6    3.7   -0.9
N    -4.3   -1.6    1.8
C    -5.2   -0.9    2.7
H    -4.6   -2.5    1.5
H    -6.1   -1.5    2.8
H    -5.4    0.1    2.3
H    -4.8   -0.8    3.7
