          35
 sphere cut out from bulk 
C     2.2   -0.7   -0.1
C     1.5   -0.8    1.2
O     2.1   -1.0    2.3
H     1.5   -0.4   -0.9
H     2.6   -1.6   -0.3
H     3.0    0.1   -0.0
N     0.1   -0.7    1.2
C    -0.8   -0.7    2.4
C    -0.8    0.7    3.0
O    -1.4    1.6    2.5
H    -0.3   -0.4    0.3
H    -1.8   -0.7    1.9
C    -0.7   -2.0    3.2
C    -1.0   -3.3    2.4
C     0.2   -4.0    1.9
N     1.1   -4.5    3.0
C     2.4   -4.7    2.9
N     3.1   -3.8    2.2
N     2.9   -5.8    3.5
H    -1.4   -1.8    4.0
H     0.3   -2.1    3.7
H    -1.7   -3.0    1.6
H    -1.6   -3.9    3.1
H     0.8   -3.4    1.3
H    -0.1   -4.9    1.3
H     0.7   -5.2    3.6
H     4.1   -3.9    2.2
H     2.8   -2.8    2.3
H     3.9   -5.8    3.5
N    -0.1    1.0    4.2
C     0.8    0.1    5.0
H    -0.3    1.9    4.5
H     1.5   -0.4    4.3
H     0.3   -0.5    5.7
H     1.4    0.8    5.6
