          35
 sphere cut out from bulk 
C    -1.6   -0.2   -1.1
C    -0.8   -0.2    0.2
O     0.4   -0.4    0.3
H    -0.9    0.1   -1.9
H    -2.5    0.4   -1.1
H    -1.8   -1.3   -1.3
N    -1.5    0.1    1.4
C    -3.0    0.2    1.6
C    -3.3    1.1    2.8
O    -3.8    0.6    3.8
H    -1.0    0.1    2.2
H    -3.4    0.7    0.7
C    -3.6   -1.2    1.6
C    -3.0   -2.2    2.6
C    -3.2   -3.7    2.2
N    -3.2   -4.0    0.8
C    -2.1   -3.8   -0.1
N    -0.9   -3.7    0.5
N    -2.2   -3.7   -1.4
H    -3.6   -1.6    0.6
H    -4.7   -1.1    1.9
H    -3.2   -2.0    3.6
H    -1.9   -2.0    2.5
H    -4.2   -4.0    2.6
H    -2.5   -4.3    2.8
H    -4.1   -4.0    0.3
H    -0.2   -3.3   -0.1
H    -0.8   -3.3    1.4
H    -3.2   -3.9   -1.7
N    -2.9    2.4    2.7
C    -2.3    3.1    1.6
H    -3.1    2.9    3.6
H    -2.5    4.2    1.8
H    -2.8    2.8    0.7
H    -1.2    2.9    1.6
