          35
 sphere cut out from bulk 
C    -1.8    1.0    1.2
C    -1.6    0.3    2.5
O    -2.3    0.6    3.5
H    -0.9    0.9    0.5
H    -1.9    2.1    1.4
H    -2.6    0.6    0.6
N    -0.8   -0.8    2.5
C    -0.6   -1.7    3.6
C     0.6   -2.6    3.2
O     1.0   -2.7    2.1
H    -0.2   -1.0    1.6
H    -0.4   -1.1    4.5
C    -1.9   -2.5    3.8
C    -2.5   -3.3    2.6
C    -4.0   -3.5    2.7
N    -4.5   -3.8    1.4
C    -4.8   -2.8    0.5
N    -5.4   -3.2   -0.7
N    -4.6   -1.5    0.7
H    -2.7   -1.8    4.2
H    -1.8   -3.2    4.7
H    -1.9   -4.2    2.4
H    -2.3   -2.6    1.7
H    -4.5   -2.7    3.2
H    -4.2   -4.4    3.3
H    -5.2   -4.6    1.3
H    -4.9   -4.0   -1.1
H    -5.5   -2.4   -1.4
H    -4.3   -1.3    1.6
N     1.1   -3.3    4.3
C     2.1   -4.3    4.1
H     0.7   -3.2    5.2
H     3.0   -4.0    4.7
H     2.4   -4.3    3.1
H     1.8   -5.3    4.4
