          35
 sphere cut out from bulk 
C     1.5    1.0    0.4
C     1.0    2.0    1.4
O     1.8    2.9    1.8
H     1.3   -0.0    0.7
H     1.0    1.1   -0.6
H     2.5    1.1    0.2
N    -0.3    2.0    1.8
C    -1.4    1.2    1.2
C    -2.0    2.0   -0.0
O    -2.0    3.2   -0.1
H    -0.6    2.9    2.3
H    -0.9    0.3    0.8
C    -2.4    0.8    2.2
C    -2.9    1.8    3.3
C    -3.7    3.0    2.8
N    -3.6    4.2    3.5
C    -2.4    4.9    3.7
N    -1.5    4.7    2.6
N    -2.2    5.6    4.7
H    -2.0   -0.1    2.8
H    -3.3    0.4    1.7
H    -2.0    2.2    3.8
H    -3.4    1.3    4.1
H    -4.8    2.7    2.7
H    -3.5    3.2    1.7
H    -4.2    4.2    4.4
H    -0.8    5.4    2.6
H    -1.9    4.5    1.7
H    -1.4    6.1    4.7
N    -2.5    1.2   -1.0
C    -2.5   -0.2   -1.2
H    -2.9    1.8   -1.8
H    -3.0   -0.7   -0.3
H    -1.4   -0.6   -1.3
H    -3.0   -0.5   -2.1
