          35
 sphere cut out from bulk 
C    -0.0    0.4    0.5
C    -0.4    0.6    1.9
O     0.5    0.9    2.8
H    -0.4    1.3   -0.1
H    -0.4   -0.5    0.1
H     1.1    0.5    0.4
N    -1.7    0.5    2.3
C    -2.9   -0.0    1.6
C    -2.8   -1.6    1.3
O    -1.8   -2.1    1.1
H    -1.8    0.5    3.3
H    -3.7    0.1    2.4
C    -3.3    0.7    0.3
C    -3.2    2.2    0.4
C    -4.1    2.9    1.5
N    -5.5    2.6    1.3
C    -6.2    1.7    2.2
N    -7.4    1.3    1.7
N    -5.8    1.3    3.4
H    -4.3    0.4    0.1
H    -2.6    0.4   -0.5
H    -3.5    2.6   -0.6
H    -2.2    2.6    0.6
H    -4.0    4.0    1.4
H    -3.8    2.6    2.5
H    -5.9    2.6    0.4
H    -8.0    0.8    2.4
H    -7.9    1.9    1.2
H    -4.9    1.6    3.6
N    -4.0   -2.2    1.4
C    -5.4   -1.8    1.7
H    -3.9   -3.2    1.1
H    -5.4   -1.0    2.5
H    -6.0   -2.6    2.0
H    -5.8   -1.3    0.8
