          35
 sphere cut out from bulk 
C     0.1   -0.6    0.6
C    -0.3   -0.6    2.1
O     0.4   -1.1    2.9
H     1.2   -0.8    0.6
H    -0.1    0.4    0.2
H    -0.5   -1.3    0.0
N    -1.6   -0.1    2.4
C    -2.7    0.1    1.5
C    -3.5    1.3    1.8
O    -4.6    1.5    1.3
H    -1.8   -0.3    3.4
H    -2.3    0.2    0.5
C    -3.6   -1.2    1.4
C    -4.6   -1.5    2.5
C    -4.0   -1.6    4.0
N    -2.9   -2.6    4.1
C    -2.3   -2.7    5.4
N    -3.2   -2.8    6.4
N    -1.0   -2.8    5.6
H    -2.9   -2.0    1.2
H    -4.2   -1.1    0.5
H    -5.0   -2.5    2.3
H    -5.3   -0.8    2.5
H    -4.8   -1.8    4.6
H    -3.7   -0.6    4.3
H    -2.2   -2.5    3.4
H    -2.7   -3.1    7.3
H    -4.0   -3.4    6.3
H    -0.5   -2.5    4.7
N    -2.9    2.2    2.6
C    -3.5    3.5    3.0
H    -2.0    2.0    3.0
H    -4.5    3.5    2.6
H    -2.9    4.3    2.6
H    -3.5    3.6    4.1
