          35
 sphere cut out from bulk 
C    -1.8    0.6   -0.1
C    -1.0    0.5    1.2
O     0.2    0.6    1.2
H    -1.6    1.5   -0.6
H    -2.9    0.5    0.1
H    -1.5   -0.2   -0.7
N    -1.7    0.4    2.4
C    -1.1    0.3    3.7
C    -0.6    1.6    4.3
O    -0.9    2.0    5.4
H    -2.7    0.5    2.3
H    -2.0    0.1    4.3
C    -0.2   -0.9    3.9
C    -0.2   -1.6    5.2
C     0.1   -0.8    6.5
N     1.2    0.1    6.4
C     2.5   -0.2    6.0
N     2.9   -1.5    6.3
N     3.2    0.7    5.5
H     0.9   -0.5    3.7
H    -0.4   -1.6    3.1
H     0.5   -2.5    5.1
H    -1.2   -2.1    5.3
H     0.2   -1.6    7.3
H    -0.8   -0.2    6.7
H     0.9    1.1    6.2
H     3.9   -1.7    6.2
H     2.5   -1.9    7.1
H     4.2    0.4    5.3
N     0.4    2.2    3.5
C     1.2    3.3    4.0
H     0.7    1.7    2.7
H     1.5    4.0    3.1
H     2.1    3.0    4.5
H     0.6    3.9    4.7
