          35
 sphere cut out from bulk 
C    -0.6   -1.4    0.1
C    -0.7   -0.1    1.0
O     0.2    0.7    1.0
H    -0.3   -1.1   -0.9
H    -1.5   -2.0    0.1
H     0.2   -2.0    0.5
N    -1.9    0.0    1.7
C    -2.0    1.1    2.7
C    -3.2    0.7    3.6
O    -3.0    0.8    4.9
H    -2.5   -0.8    1.7
H    -1.1    1.0    3.3
C    -2.2    2.5    2.1
C    -2.3    3.6    3.1
C    -1.1    3.9    4.0
N    -0.8    2.9    4.9
C     0.2    3.0    5.9
N     1.2    3.9    5.6
N     0.3    2.3    7.0
H    -3.0    2.5    1.4
H    -1.3    2.6    1.5
H    -3.2    3.4    3.8
H    -2.5    4.5    2.5
H    -1.2    4.9    4.5
H    -0.2    4.0    3.3
H    -1.6    2.3    5.2
H     2.0    3.8    6.2
H     1.6    3.9    4.6
H    -0.6    1.8    7.2
N    -4.4    0.3    3.1
C    -5.0    0.5    1.8
H    -5.1    0.2    3.9
H    -5.5    1.4    1.7
H    -5.6   -0.3    1.6
H    -4.2    0.5    1.1
