          35
 sphere cut out from bulk 
C     0.2   -1.1    0.9
C    -0.4    0.3    1.3
O     0.3    1.2    1.6
H     1.2   -0.9    0.6
H    -0.3   -1.4   -0.0
H     0.1   -1.8    1.6
N    -1.7    0.3    1.6
C    -2.8   -0.5    1.0
C    -2.8   -1.9    1.6
O    -2.3   -2.1    2.7
H    -2.0    1.3    1.9
H    -3.7   -0.0    1.4
C    -2.9   -0.4   -0.6
C    -2.5    1.0   -1.1
C    -3.4    2.1   -0.7
N    -2.8    3.5   -1.0
C    -2.2    4.3   -0.0
N    -1.7    3.6    1.1
N    -2.3    5.6   -0.0
H    -3.9   -0.6   -0.8
H    -2.3   -1.2   -1.0
H    -2.5    0.9   -2.2
H    -1.4    1.2   -0.9
H    -3.5    2.1    0.4
H    -4.3    2.1   -1.1
H    -3.2    4.0   -1.8
H    -1.3    4.3    1.7
H    -1.0    2.9    0.9
H    -2.9    5.9   -0.8
N    -3.5   -2.8    0.8
C    -3.6   -4.2    1.3
H    -3.8   -2.6   -0.1
H    -3.1   -4.9    0.6
H    -4.7   -4.5    1.4
H    -3.2   -4.3    2.3
