          35
 sphere cut out from bulk 
C     1.6    1.0    0.3
C     1.0    0.6    1.6
O     1.6    0.1    2.5
H     2.1    0.1   -0.2
H     2.3    1.8    0.5
H     0.8    1.4   -0.4
N    -0.4    0.9    1.8
C    -1.1    0.5    2.9
C    -2.5   -0.0    2.4
O    -3.0    0.5    1.3
H    -0.9    1.2    1.0
H    -0.6   -0.4    3.4
C    -1.3    1.5    4.0
C    -0.1    1.9    4.8
C     0.8    3.0    4.1
N     1.9    3.4    5.0
C     3.0    2.6    5.3
N     3.4    1.6    4.3
N     3.7    2.9    6.4
H    -2.1    1.2    4.7
H    -1.8    2.4    3.5
H     0.5    1.0    5.0
H    -0.4    2.4    5.8
H     0.3    3.9    3.9
H     1.2    2.6    3.2
H     1.7    4.0    5.8
H     4.1    0.9    4.7
H     2.7    1.2    3.7
H     4.5    2.3    6.5
N    -3.1   -0.9    3.1
C    -4.5   -1.4    2.8
H    -2.7   -1.3    3.9
H    -5.2   -1.2    3.6
H    -4.5   -2.5    2.6
H    -4.8   -0.9    1.9
