          35
 sphere cut out from bulk 
C    -1.0   -0.6   -0.9
C    -0.5   -0.4    0.4
O     0.7   -0.5    0.7
H    -0.2   -0.7   -1.6
H    -1.7    0.2   -1.3
H    -1.6   -1.6   -1.0
N    -1.4   -0.1    1.4
C    -2.8    0.0    1.4
C    -3.4    1.4    1.3
O    -4.6    1.7    1.4
H    -1.0   -0.0    2.4
H    -3.1   -0.4    0.4
C    -3.5   -0.8    2.5
C    -4.4   -2.0    2.0
C    -5.8   -1.6    1.5
N    -5.8   -0.8    0.3
C    -5.2   -1.3   -0.9
N    -5.6   -2.7   -1.2
N    -4.5   -0.6   -1.6
H    -4.1   -0.1    3.1
H    -2.7   -1.2    3.1
H    -4.5   -2.6    2.9
H    -3.8   -2.6    1.3
H    -6.3   -1.0    2.2
H    -6.4   -2.5    1.4
H    -5.5    0.1    0.4
H    -5.3   -3.0   -2.1
H    -6.5   -3.0   -0.9
H    -4.3   -1.0   -2.5
N    -2.5    2.4    1.2
C    -2.8    3.8    1.0
H    -1.5    2.1    1.1
H    -2.5    4.2    0.1
H    -2.3    4.4    1.8
H    -3.9    3.9    1.1
