          35
 sphere cut out from bulk 
C    -0.4    0.9    0.1
C    -0.2    0.6    1.6
O     0.9    0.7    2.1
H    -1.5    0.8   -0.2
H     0.1    0.1   -0.4
H     0.0    1.9   -0.1
N    -1.4    0.4    2.3
C    -1.6   -0.0    3.7
C    -2.1    1.0    4.7
O    -2.8    0.7    5.6
H    -2.2    0.4    1.8
H    -2.4   -0.7    3.6
C    -0.4   -0.9    4.3
C     0.8   -0.2    5.1
C     0.4    0.4    6.4
N    -0.5   -0.4    7.3
C    -0.1   -1.3    8.2
N     1.3   -1.6    8.3
N    -0.8   -1.9    9.1
H    -0.0   -1.5    3.5
H    -0.9   -1.6    5.0
H     1.2    0.5    4.4
H     1.5   -1.1    5.2
H    -0.1    1.4    6.3
H     1.3    0.6    7.0
H    -1.5   -0.2    7.2
H     1.5   -2.3    8.9
H     1.8   -1.7    7.4
H    -1.8   -1.6    9.0
N    -1.8    2.4    4.5
C    -0.8    3.0    3.7
H    -2.3    2.9    5.2
H    -0.5    3.9    4.2
H    -1.2    3.3    2.7
H     0.1    2.4    3.5
