          35
 sphere cut out from bulk 
C    -1.3   -1.9    0.7
C    -1.1   -0.7    1.5
O    -0.8    0.4    1.0
H    -0.5   -2.1   -0.0
H    -2.2   -1.7    0.0
H    -1.5   -2.8    1.3
N    -1.1   -0.9    2.9
C    -1.0    0.2    3.8
C     0.1   -0.0    4.9
O     0.0    0.6    6.0
H    -1.4   -1.8    3.2
H    -0.7    1.1    3.2
C    -2.4    0.7    4.4
C    -3.0   -0.3    5.5
C    -3.5   -1.6    5.0
N    -4.3   -1.7    3.8
C    -5.7   -1.5    3.7
N    -6.3   -1.6    5.0
N    -6.4   -1.5    2.6
H    -3.0    0.9    3.6
H    -2.2    1.6    4.9
H    -3.9    0.3    5.8
H    -2.4   -0.4    6.3
H    -4.0   -2.2    5.7
H    -2.6   -2.3    4.8
H    -3.9   -1.4    2.9
H    -5.9   -1.0    5.7
H    -7.3   -1.4    4.8
H    -5.8   -1.6    1.8
N     1.0   -0.9    4.6
C     2.2   -1.1    5.4
H     1.0   -1.3    3.6
H     2.0   -0.7    6.4
H     3.1   -0.7    5.0
H     2.4   -2.2    5.5
