          35
 sphere cut out from bulk 
C    -0.1    1.8    1.6
C    -0.4    1.5    3.1
O     0.2    2.1    4.0
H     1.0    2.0    1.6
H    -0.6    2.8    1.3
H    -0.3    1.0    0.9
N    -1.4    0.7    3.4
C    -2.3   -0.1    2.5
C    -1.5   -1.1    1.6
O    -1.7   -1.1    0.3
H    -1.5    0.6    4.4
H    -2.9   -0.8    3.2
C    -3.3    0.8    1.7
C    -4.2    1.6    2.6
C    -4.7    2.9    2.0
N    -3.7    3.9    1.6
C    -3.2    4.0    0.4
N    -2.1    4.9    0.4
N    -3.5    3.5   -0.7
H    -3.9    0.1    1.1
H    -2.7    1.4    1.1
H    -3.6    1.9    3.5
H    -5.0    1.0    3.0
H    -5.5    3.3    2.6
H    -5.3    2.6    1.0
H    -3.1    4.1    2.4
H    -1.8    5.1   -0.6
H    -2.2    5.7    0.9
H    -4.2    2.7   -0.6
N    -0.7   -2.0    2.1
C    -0.4   -2.2    3.5
H    -0.2   -2.5    1.5
H     0.3   -1.4    4.0
H    -1.3   -2.2    4.2
H     0.1   -3.2    3.7
