          35
 sphere cut out from bulk 
C    -1.1   -1.0    0.1
C    -0.6   -1.0    1.5
O     0.6   -1.4    1.7
H    -0.4   -0.5   -0.6
H    -2.1   -0.5   -0.0
H    -1.2   -2.0   -0.3
N    -1.4   -0.5    2.4
C    -1.1   -0.6    3.9
C    -2.4   -0.6    4.7
O    -2.6   -1.6    5.5
H    -2.4   -0.3    2.2
H    -0.6   -1.6    4.0
C    -0.0    0.5    4.3
C     0.7    0.2    5.6
C    -0.1    0.1    6.9
N    -1.1    1.2    6.9
C    -2.2    1.2    7.7
N    -2.8    0.0    8.0
N    -2.6    2.4    8.1
H    -0.5    1.5    4.3
H     0.7    0.5    3.5
H     1.3   -0.7    5.5
H     1.5    1.0    5.7
H     0.5    0.1    7.7
H    -0.7   -0.8    6.9
H    -0.7    2.2    6.9
H    -3.6    0.1    8.5
H    -2.7   -0.7    7.3
H    -3.5    2.3    8.6
N    -3.3    0.4    4.5
C    -3.1    1.7    4.0
H    -4.1    0.2    5.1
H    -2.7    2.4    4.8
H    -4.1    2.1    3.7
H    -2.4    1.8    3.2
