          35
 sphere cut out from bulk 
C     0.0   -0.0    0.0
C     0.0    0.1    1.5
O     1.1    0.3    2.1
H     0.6   -0.9   -0.3
H     0.5    0.9   -0.4
H    -1.0   -0.1   -0.4
N    -1.2   -0.1    2.1
C    -1.6   -0.1    3.5
C    -2.3    1.2    4.0
O    -3.5    1.0    4.5
H    -2.0   -0.2    1.5
H    -2.3   -0.9    3.6
C    -0.4   -0.5    4.5
C    -1.0   -0.9    5.9
C     0.2   -1.2    6.9
N    -0.3   -1.7    8.2
C    -0.7   -3.0    8.4
N    -1.3   -3.1    9.7
N    -0.7   -4.0    7.6
H     0.3    0.2    4.6
H     0.1   -1.4    4.1
H    -1.7   -1.7    5.8
H    -1.5   -0.0    6.3
H     0.8   -0.4    7.0
H     0.8   -2.0    6.4
H    -0.7   -1.0    8.7
H    -1.5   -4.1    9.9
H    -0.7   -2.7   10.4
H    -0.5   -3.7    6.7
N    -1.7    2.4    3.9
C    -0.5    2.8    3.3
H    -2.4    3.1    4.3
H    -0.6    3.2    2.3
H     0.2    2.0    3.3
H    -0.1    3.6    3.9
