          35
 sphere cut out from bulk 
C    -2.2   -1.8    0.8
C    -1.6   -0.7    1.5
O    -1.0    0.2    0.9
H    -2.0   -2.8    1.1
H    -1.9   -1.8   -0.3
H    -3.3   -1.7    0.8
N    -1.6   -0.8    2.9
C    -1.2    0.2    3.7
C    -0.1   -0.1    4.8
O     0.2    0.6    5.7
H    -2.2   -1.6    3.2
H    -0.6    0.9    3.0
C    -2.3    1.1    4.3
C    -3.0    0.6    5.7
C    -3.6   -0.8    5.7
N    -4.7   -0.9    4.7
C    -4.7   -1.7    3.6
N    -3.9   -2.8    3.7
N    -5.4   -1.6    2.5
H    -3.1    1.2    3.6
H    -1.9    2.1    4.5
H    -3.7    1.4    6.0
H    -2.2    0.6    6.5
H    -4.0   -1.0    6.7
H    -2.9   -1.6    5.4
H    -5.3   -0.1    4.6
H    -3.9   -3.3    4.6
H    -4.1   -3.5    2.9
H    -5.9   -0.7    2.5
N     0.5   -1.4    4.6
C     1.6   -1.9    5.4
H     0.2   -1.9    3.7
H     1.4   -2.9    5.7
H     1.7   -1.2    6.2
H     2.5   -1.8    4.8
