          35
 sphere cut out from bulk 
C    -0.9   -1.6    0.3
C    -0.7   -0.7    1.5
O     0.3   -0.1    1.7
H     0.0   -2.2    0.1
H    -1.2   -1.0   -0.5
H    -1.7   -2.4    0.5
N    -1.7   -0.7    2.4
C    -1.6   -0.0    3.7
C    -1.1    1.4    3.7
O    -0.3    1.8    4.5
H    -2.5   -1.4    2.3
H    -2.7    0.1    4.0
C    -0.9   -0.8    4.8
C    -1.2   -2.3    4.8
C    -2.7   -2.6    5.2
N    -3.2   -3.9    4.6
C    -3.5   -4.0    3.3
N    -4.0   -2.9    2.7
N    -3.3   -5.0    2.5
H    -1.0   -0.4    5.8
H     0.2   -0.7    4.6
H    -0.5   -2.9    5.5
H    -1.1   -2.8    3.8
H    -3.4   -1.8    4.9
H    -2.8   -2.7    6.3
H    -2.8   -4.7    5.0
H    -4.4   -3.1    1.8
H    -4.8   -2.4    3.3
H    -2.8   -5.8    3.0
N    -1.7    2.3    2.8
C    -2.6    2.0    1.7
H    -1.2    3.2    2.8
H    -3.1    3.0    1.4
H    -3.4    1.4    2.0
H    -2.2    1.6    0.8
