          35
 sphere cut out from bulk 
C     0.1   -0.1    0.3
C     0.1    0.3    1.8
O     1.2    0.6    2.4
H    -0.6    0.3   -0.3
H     0.0   -1.2    0.3
H     1.1    0.1   -0.1
N    -1.1    0.4    2.4
C    -2.5    0.2    1.9
C    -2.6   -1.1    1.2
O    -3.0   -1.2    0.0
H    -1.0    0.8    3.4
H    -3.1    0.1    2.8
C    -3.0    1.4    1.1
C    -4.5    1.4    1.0
C    -5.0    2.6    0.2
N    -6.5    2.7    0.2
C    -7.2    3.6   -0.5
N    -6.6    4.8   -0.7
N    -8.5    3.3   -0.8
H    -2.6    1.3    0.1
H    -2.6    2.3    1.6
H    -4.9    1.6    2.0
H    -4.9    0.5    0.6
H    -4.6    2.5   -0.8
H    -4.6    3.5    0.6
H    -7.0    1.8    0.2
H    -7.1    5.4   -1.4
H    -5.6    4.8   -0.8
H    -8.9    4.1   -1.2
N    -2.4   -2.3    1.9
C    -1.9   -2.4    3.3
H    -2.5   -3.1    1.4
H    -2.1   -3.4    3.6
H    -2.5   -1.7    4.0
H    -0.8   -2.2    3.4
