          35
 sphere cut out from bulk 
C     1.1    0.6    2.9
C     0.2   -0.4    2.1
O     0.6   -1.5    1.8
H     2.0    0.1    3.0
H     0.6    0.7    3.9
H     1.1    1.6    2.4
N    -1.0    0.1    1.7
C    -1.7    1.3    2.0
C    -2.0    1.5    3.5
O    -1.8    2.6    4.0
H    -1.6   -0.6    1.1
H    -1.0    2.2    1.8
C    -2.9    1.5    1.1
C    -3.6    2.9    1.3
C    -4.9    3.0    0.5
N    -4.7    2.9   -1.0
C    -3.8    3.6   -1.7
N    -3.8    5.0   -1.4
N    -3.0    3.1   -2.6
H    -3.7    0.7    1.4
H    -2.6    1.4    0.1
H    -2.9    3.7    1.1
H    -3.9    3.0    2.4
H    -5.4    4.0    0.7
H    -5.7    2.3    0.8
H    -4.6    1.9   -1.3
H    -3.3    5.6   -2.0
H    -4.8    5.4   -1.1
H    -2.5    3.7   -3.1
N    -2.5    0.5    4.2
C    -2.9   -0.9    3.8
H    -2.7    0.7    5.2
H    -3.5   -1.3    4.6
H    -2.0   -1.5    3.7
H    -3.5   -0.9    2.9
