          35
 sphere cut out from bulk 
C     0.3    0.6   -0.6
C     0.3    0.6    0.9
O     1.3    0.4    1.6
H     0.7   -0.4   -0.9
H     0.9    1.3   -1.0
H    -0.7    0.7   -1.0
N    -0.9    0.8    1.5
C    -1.0    0.8    3.0
C    -2.5    0.4    3.3
O    -3.4    0.7    2.5
H    -1.8    0.9    1.0
H    -0.4    0.0    3.3
C    -0.6    2.2    3.5
C    -0.2    2.2    5.0
C     1.2    1.6    5.3
N     1.5    0.3    4.7
C     1.0   -0.9    5.1
N     1.5   -2.0    4.4
N     0.0   -0.9    6.0
H    -1.5    2.9    3.4
H     0.2    2.6    2.9
H    -0.9    1.6    5.6
H    -0.2    3.2    5.4
H     1.3    1.5    6.4
H     1.9    2.3    4.9
H     1.8    0.3    3.7
H     1.2   -2.9    4.8
H     2.4   -1.9    4.1
H    -0.1   -1.9    6.3
N    -2.6   -0.2    4.5
C    -3.9   -0.5    5.1
H    -1.7   -0.4    5.1
H    -4.7   -0.1    4.4
H    -4.0   -0.1    6.1
H    -4.0   -1.6    5.2
