          35
 sphere cut out from bulk 
C     0.0   -1.5    0.1
C     0.0   -1.0    1.5
O     1.0   -1.3    2.2
H    -0.1   -2.6    0.0
H     1.0   -1.2   -0.4
H    -0.8   -1.0   -0.6
N    -1.1   -0.4    1.9
C    -1.4   -0.1    3.3
C    -0.7    1.2    3.8
O    -1.4    2.1    4.3
H    -1.8   -0.2    1.2
H    -2.5    0.2    3.3
C    -1.2   -1.2    4.3
C    -1.7   -2.6    3.9
C    -1.0   -3.8    4.6
N    -1.1   -5.0    3.9
C    -0.4   -5.3    2.7
N     0.8   -4.5    2.5
N    -0.6   -6.2    1.9
H    -1.6   -0.9    5.3
H    -0.1   -1.3    4.5
H    -1.6   -2.7    2.8
H    -2.8   -2.6    4.0
H    -1.5   -3.9    5.6
H     0.0   -3.5    4.7
H    -2.0   -5.5    3.9
H     1.2   -4.8    1.6
H     0.8   -3.5    2.7
H    -1.4   -6.8    2.2
N     0.6    1.3    3.7
C     1.4    2.4    4.1
H     1.1    0.4    3.3
H     2.0    2.8    3.3
H     2.1    2.1    4.9
H     0.7    3.2    4.5
