          35
 sphere cut out from bulk 
C    -0.7   -0.3   -0.1
C    -0.4   -0.1    1.3
O     0.8    0.2    1.7
H    -1.7   -0.6   -0.3
H    -0.0   -1.1   -0.5
H    -0.4    0.6   -0.7
N    -1.4   -0.2    2.2
C    -1.3    0.0    3.6
C    -0.8   -1.2    4.3
O    -1.5   -2.0    5.0
H    -2.3   -0.5    1.8
H    -0.6    0.8    3.7
C    -2.7    0.5    4.2
C    -2.6    1.0    5.6
C    -3.8    0.5    6.5
N    -3.8   -0.9    6.6
C    -5.0   -1.6    6.8
N    -4.8   -3.0    6.6
N    -6.1   -1.0    7.1
H    -3.4   -0.4    4.1
H    -3.1    1.3    3.5
H    -2.6    2.0    5.7
H    -1.7    0.6    6.1
H    -4.8    0.8    6.0
H    -3.8    1.0    7.5
H    -3.1   -1.4    6.1
H    -3.9   -3.4    6.8
H    -5.5   -3.6    7.1
H    -6.8   -1.7    7.2
N     0.5   -1.4    4.1
C     1.2   -2.6    4.6
H     1.0   -0.8    3.4
H     0.7   -3.0    5.5
H     2.3   -2.3    4.9
H     1.3   -3.4    3.9
