          35
 sphere cut out from bulk 
C     0.5   -2.9    0.0
C     0.5   -1.4    0.2
O     1.1   -0.7   -0.5
H     0.5   -3.5    0.9
H     1.5   -3.2   -0.5
H    -0.3   -3.2   -0.6
N    -0.3   -0.9    1.3
C    -1.0   -1.6    2.3
C    -0.1   -2.6    3.2
O    -0.4   -3.8    3.3
H    -0.3    0.1    1.3
H    -1.4   -0.8    3.0
C    -2.3   -2.4    1.9
C    -3.4   -1.5    1.2
C    -3.2   -1.2   -0.2
N    -4.3   -0.5   -0.8
C    -4.3    0.8   -1.2
N    -3.5    1.6   -0.3
N    -4.9    1.2   -2.2
H    -2.7   -2.9    2.8
H    -2.0   -3.2    1.2
H    -3.5   -0.6    1.8
H    -4.4   -2.0    1.3
H    -3.0   -2.1   -0.8
H    -2.2   -0.6   -0.4
H    -4.8   -1.0   -1.6
H    -3.6    2.6   -0.5
H    -3.6    1.4    0.7
H    -5.0    2.3   -2.3
N     1.0   -2.0    3.8
C     1.4   -0.6    3.8
H     1.6   -2.7    4.2
H     2.1   -0.5    4.6
H     0.6    0.1    3.9
H     1.9   -0.4    2.8
