          35
 sphere cut out from bulk 
C     0.7    0.2    0.5
C     0.4    0.2    2.0
O     1.2    0.5    2.8
H     1.0    1.2    0.2
H    -0.2   -0.1   -0.1
H     1.5   -0.5    0.3
N    -0.9    0.0    2.3
C    -1.4    0.0    3.7
C    -2.7   -0.8    3.7
O    -3.3   -1.0    2.7
H    -1.6   -0.2    1.7
H    -0.6   -0.5    4.3
C    -1.5    1.5    4.3
C    -1.3    1.6    5.8
C    -0.4    2.8    6.2
N     0.9    2.7    5.5
C     1.2    3.6    4.5
N     2.3    3.2    3.7
N     0.7    4.8    4.5
H    -2.5    1.9    4.0
H    -0.8    2.1    3.8
H    -0.8    0.7    6.2
H    -2.2    1.6    6.4
H    -0.2    2.8    7.2
H    -0.8    3.7    5.9
H     1.4    1.8    5.4
H     2.5    3.8    2.9
H     2.2    2.2    3.4
H     1.0    5.3    3.7
N    -3.1   -1.1    5.0
C    -4.4   -1.8    5.2
H    -2.5   -0.9    5.8
H    -4.2   -2.8    5.7
H    -4.9   -2.0    4.2
H    -5.1   -1.2    5.8
