          35
 sphere cut out from bulk 
C    -1.4   -1.0    0.8
C    -0.5   -0.9    2.0
O     0.4   -1.8    2.3
H    -1.2   -2.0    0.3
H    -1.2   -0.2    0.1
H    -2.5   -1.0    1.1
N    -0.6    0.2    2.9
C    -1.6    1.2    2.8
C    -0.9    2.6    3.1
O    -1.3    3.3    4.1
H    -0.0    0.2    3.7
H    -1.9    1.3    1.7
C    -2.9    1.0    3.6
C    -2.7    0.6    5.0
C    -4.0    0.2    5.8
N    -4.9    1.3    6.0
C    -4.7    2.2    7.0
N    -5.7    3.3    7.0
N    -3.9    2.2    8.0
H    -3.5    0.2    3.1
H    -3.5    1.9    3.6
H    -2.1    1.4    5.6
H    -2.0   -0.3    5.1
H    -3.7   -0.2    6.8
H    -4.5   -0.6    5.2
H    -5.3    1.7    5.2
H    -5.6    3.9    7.8
H    -6.6    3.0    6.8
H    -3.1    1.5    7.8
N     0.1    3.0    2.4
C     0.7    2.4    1.2
H     0.5    3.9    2.7
H     1.3    3.1    0.7
H    -0.1    2.0    0.5
H     1.3    1.5    1.4
