          35
 sphere cut out from bulk 
C    -0.3   -0.7    0.2
C    -0.7   -0.4    1.6
O    -0.5   -1.1    2.6
H    -0.9   -1.6   -0.1
H     0.7   -1.0    0.1
H    -0.6    0.1   -0.5
N    -1.3    0.9    1.8
C    -1.7    1.4    3.1
C    -0.6    1.3    4.2
O    -0.8    0.8    5.3
H    -1.4    1.4    1.0
H    -1.9    2.5    2.9
C    -3.0    0.8    3.5
C    -3.8    1.3    4.8
C    -4.0    2.8    4.8
N    -2.8    3.6    5.2
C    -2.1    4.5    4.4
N    -0.9    4.9    4.9
N    -2.5    4.9    3.2
H    -2.9   -0.3    3.7
H    -3.7    0.8    2.7
H    -3.2    1.0    5.7
H    -4.7    0.8    4.8
H    -4.7    3.1    5.6
H    -4.3    3.2    3.9
H    -2.1    3.1    5.9
H    -0.5    5.7    4.4
H    -0.9    5.0    5.9
H    -3.3    4.5    2.9
N     0.6    1.8    3.9
C     1.0    2.6    2.8
H     1.3    1.7    4.7
H     1.8    3.3    3.0
H     0.2    3.3    2.5
H     1.3    2.0    1.9
