          35
 sphere cut out from bulk 
C    -1.5    1.3   -0.8
C    -0.8    1.2    0.5
O     0.4    1.6    0.7
H    -1.0    2.1   -1.4
H    -2.6    1.6   -0.7
H    -1.4    0.4   -1.4
N    -1.4    0.5    1.6
C    -2.7   -0.1    1.6
C    -3.5    0.4    2.9
O    -3.5   -0.2    3.9
H    -0.8    0.5    2.4
H    -3.3    0.2    0.7
C    -2.6   -1.6    1.7
C    -2.0   -2.3    0.5
C    -3.0   -2.4   -0.7
N    -2.4   -3.2   -1.8
C    -1.6   -2.7   -2.8
N    -1.3   -3.6   -3.8
N    -1.3   -1.4   -2.8
H    -3.7   -2.0    1.9
H    -2.1   -1.9    2.6
H    -1.8   -3.4    0.7
H    -1.1   -1.8    0.2
H    -3.2   -1.4   -1.1
H    -3.9   -2.9   -0.4
H    -3.0   -4.0   -2.1
H    -0.6   -3.3   -4.5
H    -1.1   -4.5   -3.5
H    -0.6   -1.2   -3.5
N    -4.1    1.6    2.8
C    -4.1    2.6    1.6
H    -4.5    2.0    3.6
H    -4.4    2.1    0.7
H    -3.1    3.0    1.5
H    -4.8    3.4    1.9
