          35
 sphere cut out from bulk 
C     1.0    0.3    1.1
C     0.3    0.2    2.4
O     1.0    0.2    3.5
H     0.3    0.1    0.2
H     1.8   -0.4    1.0
H     1.4    1.3    1.0
N    -1.1    0.1    2.4
C    -1.9    0.2    3.6
C    -2.5   -1.1    4.1
O    -3.4   -1.0    5.0
H    -1.5    0.2    1.5
H    -1.1    0.5    4.4
C    -2.9    1.4    3.5
C    -2.3    2.7    3.1
C    -1.2    3.3    4.0
N    -0.8    4.6    3.7
C     0.3    5.0    3.0
N     0.6    4.0    2.0
N     0.9    6.0    3.3
H    -3.4    1.4    4.5
H    -3.7    1.1    2.8
H    -3.1    3.5    3.0
H    -1.9    2.7    2.0
H    -0.3    2.6    4.0
H    -1.6    3.2    5.0
H    -1.0    5.3    4.4
H     1.4    4.4    1.4
H    -0.2    3.7    1.4
H     1.7    6.2    2.6
N    -2.1   -2.2    3.5
C    -2.6   -3.5    3.9
H    -1.4   -2.1    2.8
H    -1.8   -4.1    4.4
H    -2.9   -4.1    3.0
H    -3.4   -3.4    4.6
