          35
 sphere cut out from bulk 
C    -0.2    0.9   -0.1
C    -0.1    0.6    1.4
O     0.9    0.8    2.0
H     0.8    1.2   -0.5
H    -0.9    1.8   -0.2
H    -0.6    0.1   -0.7
N    -1.2    0.0    2.0
C    -2.6   -0.2    1.4
C    -3.3    1.1    0.9
O    -4.0    1.0   -0.1
H    -1.1   -0.1    3.0
H    -2.5   -0.7    0.4
C    -3.4   -1.0    2.4
C    -4.8   -1.4    1.8
C    -6.0   -0.7    2.4
N    -6.1    0.7    1.9
C    -6.5    1.8    2.7
N    -7.1    1.5    3.9
N    -6.1    3.0    2.3
H    -3.6   -0.4    3.3
H    -2.9   -1.9    2.6
H    -4.8   -1.4    0.7
H    -5.0   -2.5    2.1
H    -6.0   -0.7    3.5
H    -7.0   -1.3    2.1
H    -5.7    0.9    1.0
H    -7.5    2.3    4.4
H    -7.8    0.8    3.8
H    -6.5    3.7    2.9
N    -3.3    2.2    1.7
C    -2.7    2.5    3.0
H    -4.1    2.8    1.5
H    -3.0    1.7    3.8
H    -3.1    3.4    3.4
H    -1.6    2.5    2.9
