          35
 sphere cut out from bulk 
C    -1.1    2.6    1.3
C    -1.2    1.3    2.1
O    -0.4    1.0    3.0
H    -1.1    3.4    2.0
H    -1.9    2.7    0.6
H    -0.1    2.5    0.8
N    -2.2    0.5    1.8
C    -2.4   -0.9    2.3
C    -2.8   -1.8    1.2
O    -3.4   -1.3    0.2
H    -2.7    0.6    0.9
H    -1.4   -1.2    2.7
C    -3.4   -0.9    3.5
C    -2.8   -0.4    4.8
C    -1.7   -1.3    5.4
N    -2.1   -2.6    5.9
C    -1.9   -3.8    5.2
N    -2.1   -5.0    6.0
N    -1.4   -3.9    4.0
H    -3.7   -2.0    3.7
H    -4.2   -0.3    3.3
H    -3.6   -0.3    5.6
H    -2.3    0.6    4.7
H    -1.2   -0.8    6.3
H    -0.9   -1.5    4.7
H    -2.6   -2.7    6.8
H    -2.4   -5.8    5.5
H    -2.5   -4.8    6.9
H    -1.1   -4.8    3.8
N    -2.6   -3.1    1.4
C    -3.1   -4.1    0.5
H    -2.2   -3.4    2.3
H    -3.8   -4.8    1.0
H    -2.2   -4.7    0.2
H    -3.5   -3.6   -0.4
