          35
 sphere cut out from bulk 
C    -0.9   -0.5   -0.2
C    -0.2   -0.3    1.1
O     0.9   -0.6    1.4
H    -0.1   -1.0   -0.9
H    -1.1    0.5   -0.7
H    -1.8   -1.1   -0.2
N    -1.0    0.2    2.1
C    -2.5    0.5    2.1
C    -3.3   -0.8    2.0
O    -3.0   -1.7    2.7
H    -0.6    0.1    3.1
H    -2.7    0.7    3.2
C    -2.8    1.8    1.4
C    -2.0    3.0    1.8
C    -2.0    3.4    3.2
N    -3.4    3.6    3.7
C    -3.7    3.7    5.0
N    -5.1    4.0    5.3
N    -2.9    3.5    6.1
H    -3.9    2.0    1.5
H    -2.7    1.6    0.3
H    -2.3    3.9    1.1
H    -0.9    2.8    1.5
H    -1.4    4.3    3.4
H    -1.6    2.6    3.9
H    -4.0    4.2    3.1
H    -5.3    4.0    6.2
H    -5.7    3.5    4.7
H    -1.9    3.5    5.8
N    -4.3   -0.9    1.0
C    -4.7   -0.1   -0.1
H    -4.7   -1.9    1.1
H    -5.2    0.8    0.2
H    -5.5   -0.7   -0.7
H    -3.9    0.1   -0.8
