          35
 sphere cut out from bulk 
C     0.5    0.8    0.7
C     0.5    0.3    2.1
O     1.6   -0.1    2.6
H     0.7   -0.0   -0.0
H     1.2    1.6    0.5
H    -0.5    1.2    0.4
N    -0.7    0.4    2.8
C    -0.8   -0.1    4.2
C     0.3    0.4    5.1
O     0.9   -0.3    5.9
H    -1.5    0.7    2.3
H    -1.8    0.4    4.5
C    -1.0   -1.6    4.2
C    -1.3   -2.3    5.5
C    -2.6   -1.8    6.3
N    -2.3   -0.6    7.0
C    -2.9    0.7    6.8
N    -4.2    0.5    6.2
N    -2.5    1.8    7.0
H    -0.0   -2.1    3.8
H    -1.7   -1.9    3.4
H    -0.5   -2.3    6.2
H    -1.5   -3.4    5.3
H    -2.9   -2.6    7.0
H    -3.4   -1.6    5.5
H    -1.3   -0.5    7.3
H    -4.7    1.4    6.3
H    -4.8   -0.2    6.6
H    -1.5    1.8    7.2
N     0.5    1.8    5.1
C    -0.2    2.8    4.5
H     1.3    2.0    5.8
H     0.0    3.8    5.0
H    -1.2    2.7    4.5
H     0.2    3.0    3.4
