          35
 sphere cut out from bulk 
C     0.1   -0.5    0.8
C    -0.2   -0.3    2.3
O     0.6   -0.6    3.1
H     1.1   -0.8    0.7
H    -0.1    0.4    0.2
H    -0.5   -1.3    0.3
N    -1.4    0.2    2.6
C    -2.6    0.2    1.8
C    -3.5    1.5    2.0
O    -4.6    1.6    1.7
H    -1.6    0.1    3.6
H    -2.3    0.4    0.8
C    -3.5   -1.0    1.8
C    -4.1   -1.4    3.2
C    -3.2   -2.4    4.0
N    -3.8   -2.7    5.3
C    -3.1   -3.5    6.2
N    -3.9   -3.8    7.3
N    -1.9   -4.0    6.1
H    -3.0   -1.8    1.4
H    -4.4   -0.8    1.2
H    -5.1   -1.8    3.1
H    -4.2   -0.5    3.9
H    -2.2   -2.0    4.1
H    -3.1   -3.3    3.3
H    -4.8   -2.8    5.3
H    -3.3   -4.3    8.0
H    -4.4   -3.0    7.7
H    -1.5   -3.8    5.2
N    -2.8    2.5    2.7
C    -3.3    3.9    2.9
H    -1.8    2.4    2.9
H    -2.8    4.6    2.3
H    -3.2    4.1    4.0
H    -4.4    3.8    2.7
