          35
 sphere cut out from bulk 
C    -1.1   -1.9   -1.1
C    -0.5   -0.7   -0.3
O     0.5   -0.1   -0.6
H    -0.2   -2.4   -1.5
H    -1.6   -1.4   -1.9
H    -1.7   -2.5   -0.6
N    -1.1   -0.4    0.9
C    -2.4   -0.8    1.4
C    -2.5   -2.3    1.7
O    -3.4   -3.0    1.2
H    -0.7    0.4    1.4
H    -2.5   -0.2    2.4
C    -3.6   -0.3    0.5
C    -3.7    1.2    0.3
C    -3.5    1.7   -1.1
N    -2.2    1.5   -1.6
C    -1.9    1.2   -3.0
N    -0.5    1.2   -3.2
N    -2.7    1.0   -3.9
H    -4.5   -0.7    1.0
H    -3.5   -0.8   -0.4
H    -2.9    1.8    0.9
H    -4.7    1.6    0.7
H    -3.8    2.8   -1.2
H    -4.2    1.1   -1.7
H    -1.4    1.9   -1.1
H    -0.3    0.9   -4.1
H     0.1    0.8   -2.5
H    -3.7    1.2   -3.6
N    -1.6   -2.8    2.6
C    -0.6   -2.1    3.3
H    -1.8   -3.8    2.8
H     0.3   -1.9    2.7
H    -0.3   -2.8    4.2
H    -0.9   -1.1    3.8
