          35
 sphere cut out from bulk 
C    -2.7   -2.0    1.3
C    -2.9   -2.2    2.8
O    -3.7   -3.0    3.3
H    -2.5   -3.0    0.9
H    -2.0   -1.3    1.1
H    -3.7   -1.7    0.9
N    -2.2   -1.4    3.6
C    -2.2   -1.3    5.1
C    -1.7   -2.5    5.9
O    -0.9   -2.3    6.8
H    -1.5   -0.8    3.1
H    -1.5   -0.5    5.3
C    -3.6   -0.9    5.6
C    -4.2    0.3    4.9
C    -3.4    1.6    5.1
N    -4.1    2.8    4.5
C    -3.5    4.0    4.3
N    -4.4    5.0    3.8
N    -2.3    4.3    4.6
H    -3.5   -0.7    6.7
H    -4.3   -1.7    5.5
H    -5.2    0.5    5.4
H    -4.4    0.1    3.9
H    -2.5    1.5    4.6
H    -3.2    1.8    6.2
H    -5.1    2.8    4.7
H    -5.0    4.7    3.0
H    -3.9    5.8    3.6
H    -1.8    3.5    5.1
N    -2.1   -3.7    5.5
C    -1.7   -4.9    6.2
H    -2.8   -3.7    4.8
H    -2.6   -5.3    6.7
H    -0.9   -4.7    6.9
H    -1.4   -5.6    5.5
