          35
 sphere cut out from bulk 
C     0.5    1.2    2.1
C    -0.0    0.4    3.3
O     0.7    0.2    4.3
H     1.5    1.5    2.3
H    -0.2    2.0    1.8
H     0.5    0.5    1.2
N    -1.3    0.1    3.3
C    -2.3    0.0    2.2
C    -2.9    1.4    2.0
O    -3.2    2.1    2.9
H    -1.6   -0.4    4.2
H    -1.7   -0.3    1.3
C    -3.4   -1.0    2.5
C    -2.9   -2.5    2.5
C    -1.8   -2.9    3.5
N    -2.1   -2.5    4.9
C    -1.2   -2.8    5.9
N     0.1   -2.4    5.6
N    -1.5   -3.3    7.0
H    -4.2   -0.9    1.8
H    -3.8   -0.8    3.5
H    -2.6   -2.8    1.5
H    -3.8   -3.1    2.7
H    -0.8   -2.5    3.2
H    -1.7   -4.0    3.5
H    -3.0   -2.7    5.2
H     0.7   -2.6    6.4
H     0.3   -1.5    5.2
H    -2.5   -3.6    7.0
N    -3.3    1.6    0.7
C    -3.0    0.9   -0.5
H    -3.8    2.5    0.6
H    -3.5    1.4   -1.4
H    -3.5   -0.1   -0.5
H    -1.9    0.8   -0.7
