          35
 sphere cut out from bulk 
C     0.8   -1.1    0.2
C     0.6   -1.0    1.7
O     1.4   -1.4    2.5
H     0.0   -0.6   -0.4
H     1.0   -2.1   -0.1
H     1.8   -0.5    0.0
N    -0.7   -0.6    2.1
C    -1.1   -0.6    3.5
C    -0.2    0.1    4.5
O     0.1   -0.4    5.5
H    -1.3   -0.3    1.4
H    -2.1    0.0    3.5
C    -1.5   -2.0    4.0
C    -2.5   -2.8    3.1
C    -3.9   -2.2    3.0
N    -4.8   -3.0    2.2
C    -5.6   -4.0    2.8
N    -5.5   -4.1    4.2
N    -6.4   -4.8    2.1
H    -1.9   -1.9    5.0
H    -0.6   -2.5    4.1
H    -2.5   -3.8    3.5
H    -2.0   -2.9    2.1
H    -3.8   -1.2    2.4
H    -4.3   -1.9    4.0
H    -4.7   -3.0    1.2
H    -6.0   -4.9    4.5
H    -4.6   -4.1    4.6
H    -6.5   -4.5    1.2
N     0.3    1.4    4.1
C     0.0    2.2    3.0
H     0.9    1.7    4.8
H     0.2    3.2    3.2
H    -1.0    2.1    2.6
H     0.7    1.9    2.1
