          35
 sphere cut out from bulk 
C     0.5   -0.9    0.8
C     0.1   -0.4    2.1
O     0.6    0.6    2.7
H     0.5   -0.0    0.1
H    -0.1   -1.7    0.4
H     1.5   -1.3    0.9
N    -1.0   -1.0    2.7
C    -1.5   -0.7    4.0
C    -2.1   -2.0    4.7
O    -1.5   -2.7    5.5
H    -1.4   -1.9    2.2
H    -0.6   -0.5    4.7
C    -2.4    0.5    4.1
C    -3.0    0.8    5.5
C    -4.1    1.8    5.5
N    -5.0    1.8    6.7
C    -5.8    0.7    6.9
N    -6.4    0.8    8.2
N    -6.2   -0.2    6.1
H    -3.3    0.3    3.4
H    -1.9    1.3    3.7
H    -2.1    1.1    6.1
H    -3.4   -0.1    5.9
H    -4.8    1.6    4.6
H    -3.7    2.8    5.4
H    -4.5    2.1    7.5
H    -7.1    0.1    8.3
H    -6.7    1.7    8.5
H    -5.6   -0.2    5.2
N    -3.4   -2.3    4.2
C    -4.2   -3.4    4.7
H    -3.8   -1.7    3.6
H    -5.0   -3.0    5.4
H    -3.5   -4.0    5.4
H    -4.6   -4.0    4.0
