          35
 sphere cut out from bulk 
C    -0.5    0.7   -0.4
C    -0.4    0.7    1.1
O     0.7    1.0    1.7
H     0.3    1.3   -0.8
H    -1.4    1.2   -0.7
H    -0.5   -0.3   -0.8
N    -1.5    0.4    1.9
C    -2.8    0.1    1.5
C    -3.8    0.9    2.4
O    -4.3    0.5    3.4
H    -1.2    0.4    2.9
H    -2.9    0.3    0.5
C    -3.1   -1.4    1.7
C    -2.3   -2.4    0.8
C    -2.7   -2.4   -0.6
N    -4.0   -2.9   -0.8
C    -4.3   -4.3   -0.9
N    -5.6   -4.6   -1.2
N    -3.4   -5.3   -0.8
H    -4.2   -1.6    1.5
H    -3.0   -1.7    2.8
H    -2.3   -3.4    1.2
H    -1.2   -2.1    0.9
H    -1.9   -3.0   -1.2
H    -2.7   -1.4   -1.1
H    -4.7   -2.4   -1.4
H    -5.8   -5.6   -1.1
H    -6.3   -4.0   -0.7
H    -2.5   -4.9   -0.7
N    -4.0    2.2    1.9
C    -3.4    2.9    0.8
H    -4.6    2.7    2.6
H    -2.4    3.0    1.0
H    -3.9    3.9    0.7
H    -3.6    2.4   -0.1
