          35
 sphere cut out from bulk 
C    -1.0    1.6   -0.3
C    -0.6    0.8    1.0
O     0.4    0.2    1.1
H    -0.2    2.3   -0.4
H    -1.9    2.1   -0.2
H    -0.9    0.9   -1.1
N    -1.6    0.8    2.0
C    -1.5    0.1    3.2
C    -2.4   -1.1    3.1
O    -3.6   -1.1    3.2
H    -2.5    1.2    1.8
H    -0.4   -0.2    3.3
C    -1.9    1.0    4.4
C    -1.6    0.5    5.8
C    -2.4   -0.8    6.2
N    -3.8   -0.6    6.2
C    -4.7   -0.7    7.2
N    -4.1   -0.4    8.5
N    -5.9   -1.0    7.2
H    -3.0    1.2    4.3
H    -1.4    2.0    4.2
H    -1.8    1.3    6.5
H    -0.5    0.3    5.9
H    -2.1   -1.0    7.3
H    -2.1   -1.6    5.7
H    -4.2   -0.8    5.2
H    -4.8   -0.3    9.2
H    -3.5    0.5    8.5
H    -6.2   -1.3    6.2
N    -1.8   -2.3    2.9
C    -0.4   -2.6    2.8
H    -2.5   -3.1    2.8
H    -0.3   -3.6    2.2
H     0.1   -2.8    3.8
H     0.2   -1.9    2.2
