          35
 sphere cut out from bulk 
C     0.2   -0.0    0.7
C    -0.1   -0.1    2.2
O     0.7   -0.1    3.1
H     1.2    0.3    0.6
H    -0.5    0.7    0.2
H     0.1   -1.0    0.3
N    -1.5   -0.2    2.6
C    -2.7   -0.1    1.8
C    -2.7   -1.1    0.7
O    -2.9   -0.8   -0.5
H    -1.6   -0.2    3.6
H    -3.5   -0.5    2.5
C    -3.1    1.3    1.4
C    -4.6    1.4    1.0
C    -5.0    2.8    0.6
N    -6.4    2.9    0.3
C    -7.0    4.2   -0.0
N    -8.3    4.0   -0.5
N    -6.5    5.3    0.1
H    -2.5    1.6    0.5
H    -2.9    2.0    2.2
H    -5.2    1.1    1.9
H    -4.8    0.7    0.2
H    -4.3    3.2   -0.2
H    -4.8    3.5    1.5
H    -6.7    2.2   -0.3
H    -8.7    4.9   -0.5
H    -8.8    3.3    0.1
H    -5.5    5.3    0.3
N    -2.5   -2.4    1.0
C    -2.4   -3.1    2.3
H    -2.5   -3.0    0.2
H    -2.6   -4.1    2.2
H    -3.0   -2.6    3.0
H    -1.3   -3.0    2.7
