          35
 sphere cut out from bulk 
C     0.1    0.1   -0.1
C     0.1    0.0    1.5
O     1.1   -0.2    2.1
H     0.7    0.9   -0.4
H    -0.9    0.3   -0.5
H     0.5   -0.8   -0.5
N    -1.2    0.1    2.0
C    -1.4   -0.1    3.5
C    -2.6   -1.0    3.6
O    -3.5   -0.9    2.7
H    -2.0    0.1    1.5
H    -0.5   -0.6    3.8
C    -1.6    1.2    4.3
C    -0.3    2.1    4.4
C    -0.5    3.4    5.1
N     0.7    4.1    5.4
C     1.5    3.8    6.4
N     2.7    4.6    6.5
N     1.1    2.9    7.3
H    -1.9    1.0    5.3
H    -2.4    1.8    3.8
H     0.1    2.3    3.4
H     0.5    1.5    4.9
H    -1.0    3.1    6.1
H    -1.2    4.0    4.6
H     1.1    4.5    4.5
H     3.5    4.1    7.0
H     3.0    5.1    5.7
H     1.8    2.9    8.1
N    -2.8   -1.7    4.7
C    -1.8   -1.9    5.8
H    -3.6   -2.2    4.8
H    -2.1   -2.7    6.5
H    -1.6   -1.0    6.3
H    -0.8   -2.3    5.4
