          35
 sphere cut out from bulk 
C    -0.6   -0.6   -0.9
C    -0.3   -0.1    0.6
O     0.8    0.3    0.9
H    -0.3   -1.7   -0.9
H     0.1   -0.1   -1.5
H    -1.6   -0.5   -1.2
N    -1.3   -0.1    1.5
C    -2.7   -0.3    1.3
C    -3.5    0.8    1.9
O    -3.0    1.4    2.9
H    -1.1    0.3    2.3
H    -3.0   -0.4    0.2
C    -3.2   -1.6    2.0
C    -2.5   -2.9    1.6
C    -3.2   -3.7    0.5
N    -3.2   -3.1   -0.8
C    -4.2   -2.4   -1.4
N    -5.5   -3.0   -1.1
N    -4.0   -1.4   -2.1
H    -4.3   -1.7    1.9
H    -3.1   -1.4    3.1
H    -2.5   -3.6    2.5
H    -1.5   -2.7    1.4
H    -4.2   -4.0    0.8
H    -2.7   -4.7    0.4
H    -2.3   -2.7   -1.1
H    -6.2   -2.6   -1.7
H    -5.5   -4.0   -1.0
H    -4.8   -1.1   -2.6
N    -4.7    1.2    1.4
C    -5.4    0.6    0.3
H    -5.2    1.9    2.0
H    -6.1    1.4   -0.1
H    -6.1   -0.3    0.7
H    -4.8    0.2   -0.5
