          35
 sphere cut out from bulk 
C     0.5   -0.1    0.8
C     0.1   -0.1    2.2
O     0.9   -0.4    3.1
H     1.4   -0.7    0.7
H     0.7    0.9    0.4
H    -0.3   -0.5    0.1
N    -1.2    0.3    2.6
C    -2.4    0.5    1.9
C    -2.9   -0.9    1.3
O    -2.2   -1.9    1.1
H    -1.3    0.2    3.6
H    -3.2    0.8    2.6
C    -2.4    1.5    0.8
C    -2.8    2.9    1.2
C    -1.8    3.5    2.3
N    -0.4    3.5    2.0
C     0.1    4.1    0.8
N    -0.5    5.3    0.4
N     1.0    3.4    0.1
H    -3.1    1.2   -0.0
H    -1.5    1.5    0.3
H    -3.8    3.0    1.6
H    -2.8    3.6    0.4
H    -1.9    3.0    3.2
H    -2.1    4.6    2.5
H     0.0    2.6    2.1
H     0.0    5.8   -0.3
H    -0.7    5.9    1.2
H     1.4    4.0   -0.7
N    -4.3   -1.0    1.1
C    -5.3   -0.1    1.4
H    -4.5   -1.9    0.8
H    -6.3   -0.6    1.3
H    -5.3    0.8    0.7
H    -5.3    0.3    2.4
