          35
 sphere cut out from bulk 
C    -0.3   -0.1   -0.4
C    -0.1   -0.3    1.1
O     0.9   -0.7    1.6
H    -0.1   -1.1   -0.8
H     0.5    0.5   -0.8
H    -1.2    0.3   -0.7
N    -1.2    0.1    1.9
C    -1.3    0.1    3.3
C    -0.8    1.4    3.9
O    -1.5    2.4    3.9
H    -2.0    0.5    1.4
H    -2.4    0.2    3.5
C    -1.0   -1.3    4.0
C    -1.3   -1.3    5.5
C    -0.9   -2.6    6.2
N    -1.6   -3.8    5.7
C    -1.2   -4.5    4.6
N     0.2   -4.7    4.5
N    -2.1   -4.9    3.7
H     0.1   -1.5    3.8
H    -1.5   -2.1    3.5
H    -0.8   -0.5    6.0
H    -2.4   -1.1    5.6
H    -1.2   -2.5    7.2
H     0.1   -2.8    6.1
H    -2.6   -3.7    5.7
H     0.5   -5.3    3.7
H     0.7   -4.8    5.3
H    -1.7   -5.6    3.0
N     0.5    1.5    4.4
C     1.6    0.6    4.4
H     0.7    2.5    4.7
H     2.5    1.1    4.5
H     1.6   -0.1    3.5
H     1.6   -0.1    5.3
