          35
 sphere cut out from bulk 
C     0.7    0.3    0.8
C     0.4    1.7    1.3
O     1.3    2.5    1.6
H     0.3    0.2   -0.2
H     0.2   -0.5    1.4
H     1.8    0.1    0.8
N    -0.9    2.0    1.5
C    -2.1    1.3    1.1
C    -2.3    1.2   -0.5
O    -2.7    0.2   -0.9
H    -1.0    3.0    1.8
H    -2.0    0.3    1.4
C    -3.4    1.9    1.8
C    -3.5    1.4    3.2
C    -2.5    2.1    4.2
N    -2.9    1.7    5.6
C    -2.2    2.2    6.7
N    -0.8    2.4    6.5
N    -2.8    2.3    7.8
H    -4.2    1.5    1.2
H    -3.4    3.0    1.7
H    -3.5    0.4    3.3
H    -4.5    1.7    3.5
H    -2.5    3.2    4.1
H    -1.5    1.7    4.0
H    -3.9    1.7    5.8
H    -0.3    2.6    7.3
H    -0.3    1.9    5.8
H    -2.2    2.6    8.6
N    -2.1    2.3   -1.2
C    -1.7    3.7   -0.9
H    -2.3    2.1   -2.2
H    -1.9    4.3   -1.8
H    -0.6    3.8   -0.6
H    -2.3    4.1   -0.1
