          35
 sphere cut out from bulk 
C     0.6    1.4    1.8
C    -0.0    0.1    2.1
O     0.6   -1.0    2.3
H     1.7    1.2    1.8
H     0.3    2.2    2.4
H     0.4    1.7    0.7
N    -1.4    0.1    2.2
C    -2.3    1.2    1.9
C    -2.7    2.1    3.1
O    -3.3    3.1    3.0
H    -1.8   -0.8    2.3
H    -1.9    1.9    1.2
C    -3.6    0.7    1.3
C    -3.5    0.1   -0.1
C    -4.7   -0.6   -0.7
N    -5.0   -1.8    0.0
C    -6.2   -2.5   -0.0
N    -7.3   -1.8   -0.4
N    -6.1   -3.8    0.3
H    -4.4    1.5    1.3
H    -4.0   -0.1    1.9
H    -2.6   -0.6   -0.2
H    -3.2    1.0   -0.8
H    -4.6   -0.7   -1.8
H    -5.6    0.1   -0.6
H    -4.2   -2.4    0.2
H    -8.1   -2.4   -0.7
H    -7.2   -1.0   -1.0
H    -7.0   -4.2    0.3
N    -2.2    1.6    4.3
C    -2.4    2.4    5.5
H    -1.6    0.8    4.3
H    -1.4    2.7    6.0
H    -2.9    1.7    6.3
H    -3.0    3.2    5.3
