          35
 sphere cut out from bulk 
C    -0.2    1.0    0.6
C    -0.2   -0.3    1.4
O     0.8   -1.1    1.4
H     0.8    1.2    0.3
H    -0.7    1.8    1.1
H    -0.8    0.8   -0.3
N    -1.4   -0.7    2.1
C    -2.7   -0.1    1.9
C    -3.2    0.8    3.0
O    -3.8    1.8    2.7
H    -1.3   -1.6    2.6
H    -2.7    0.5    1.0
C    -3.7   -1.3    1.6
C    -3.3   -2.1    0.3
C    -3.4   -3.6    0.5
N    -2.7   -4.2    1.6
C    -1.4   -3.8    1.9
N    -0.5   -3.8    0.9
N    -1.1   -3.5    3.1
H    -4.7   -0.8    1.6
H    -3.7   -1.9    2.5
H    -2.3   -1.8    0.0
H    -4.0   -1.8   -0.5
H    -3.1   -4.0   -0.5
H    -4.5   -3.9    0.6
H    -3.2   -4.2    2.5
H     0.3   -3.1    0.9
H    -0.8   -4.0   -0.1
H    -0.1   -3.4    3.3
N    -3.0    0.5    4.3
C    -2.3   -0.6    4.9
H    -3.4    1.2    5.0
H    -2.7   -0.8    6.0
H    -1.2   -0.5    5.0
H    -2.5   -1.6    4.4
