          35
 sphere cut out from bulk 
C    -0.0    1.7    1.1
C    -0.4    0.9    2.3
O    -0.9    1.4    3.4
H     0.3    1.2    0.3
H     0.7    2.5    1.4
H    -0.9    2.3    0.8
N    -0.3   -0.5    2.1
C    -0.5   -1.4    3.2
C     0.4   -2.6    2.9
O     0.9   -2.8    1.8
H     0.2   -0.8    1.3
H    -0.1   -0.9    4.2
C    -2.0   -1.8    3.4
C    -2.6   -2.5    2.2
C    -4.1   -2.8    2.4
N    -4.6   -3.5    1.2
C    -5.9   -4.0    1.2
N    -6.2   -4.5   -0.0
N    -6.8   -3.9    2.1
H    -2.5   -0.8    3.6
H    -2.1   -2.4    4.3
H    -2.0   -3.5    2.0
H    -2.4   -1.9    1.3
H    -4.6   -1.8    2.5
H    -4.2   -3.4    3.3
H    -4.2   -3.2    0.3
H    -5.6   -5.2   -0.4
H    -7.2   -5.0    0.0
H    -6.4   -3.4    2.9
N     0.5   -3.5    3.9
C     1.3   -4.8    3.8
H     0.1   -3.3    4.8
H     2.1   -4.8    4.5
H     1.6   -4.8    2.8
H     0.6   -5.6    4.0
