          35
 sphere cut out from bulk 
C    -1.0    2.4   -0.9
C    -0.2    1.5    0.0
O     1.0    1.6    0.2
H    -0.3    3.1   -1.4
H    -1.8    3.0   -0.4
H    -1.4    1.8   -1.7
N    -1.0    0.6    0.8
C    -2.4    0.4    0.7
C    -3.3    1.4    1.3
O    -4.5    1.6    1.0
H    -0.4   -0.0    1.3
H    -2.7    0.4   -0.4
C    -2.7   -1.0    1.2
C    -4.2   -1.5    1.2
C    -4.8   -1.7   -0.2
N    -6.1   -2.2   -0.1
C    -6.8   -2.8   -1.1
N    -6.1   -3.0   -2.3
N    -8.1   -3.1   -1.1
H    -2.4   -1.1    2.3
H    -2.1   -1.8    0.7
H    -4.8   -0.8    1.8
H    -4.2   -2.5    1.8
H    -4.2   -2.4   -0.7
H    -4.7   -0.7   -0.7
H    -6.7   -1.7    0.6
H    -6.7   -3.3   -3.0
H    -5.5   -2.3   -2.6
H    -8.5   -3.0   -0.1
N    -2.7    2.1    2.3
C    -3.4    3.2    3.1
H    -1.7    2.0    2.5
H    -3.0    4.2    2.9
H    -3.4    2.9    4.2
H    -4.5    3.2    2.7
