          35
 sphere cut out from bulk 
C     1.1    0.9    0.2
C     0.5    1.0    1.6
O     1.0    1.8    2.5
H     0.5    0.3   -0.4
H     2.1    0.5    0.3
H     1.2    1.9   -0.2
N    -0.6    0.3    1.9
C    -1.2    0.2    3.2
C    -1.6    1.6    3.8
O    -1.3    1.8    5.0
H    -0.9   -0.3    1.1
H    -2.2   -0.3    3.0
C    -0.5   -0.7    4.2
C    -0.3   -2.1    3.7
C     0.5   -3.0    4.7
N    -0.1   -3.1    6.0
C     0.3   -4.1    6.9
N    -0.3   -3.9    8.2
N     1.2   -5.0    6.8
H    -1.0   -0.6    5.1
H     0.5   -0.2    4.3
H     0.2   -2.2    2.8
H    -1.3   -2.6    3.6
H     1.5   -2.6    4.8
H     0.6   -4.0    4.3
H    -0.4   -2.2    6.4
H    -0.1   -4.7    8.8
H    -1.3   -3.8    8.1
H     1.7   -4.9    5.9
N    -2.2    2.5    3.0
C    -2.6    2.5    1.6
H    -2.3    3.4    3.5
H    -1.8    2.7    0.9
H    -3.4    3.2    1.5
H    -3.0    1.5    1.4
