          35
 sphere cut out from bulk 
C    -1.8   -2.5    2.4
C    -1.1   -1.1    2.4
O    -1.6   -0.1    1.8
H    -1.9   -2.8    1.3
H    -2.8   -2.4    2.9
H    -1.2   -3.3    2.9
N     0.1   -1.0    3.0
C     0.9    0.2    3.1
C     2.3   -0.2    3.1
O     2.7   -1.2    3.8
H     0.5   -1.9    3.4
H     0.6    0.7    2.1
C     0.5    1.0    4.3
C     1.1    2.5    4.3
C     0.5    3.4    3.3
N     1.0    4.8    3.4
C     0.3    5.6    4.3
N     0.9    6.9    4.2
N    -0.6    5.4    5.1
H     0.8    0.5    5.2
H    -0.6    1.1    4.3
H     2.1    2.4    4.3
H     0.8    2.9    5.3
H    -0.6    3.3    3.2
H     0.8    3.0    2.3
H     1.3    5.2    2.6
H     1.9    7.0    4.2
H     0.5    7.5    4.9
H    -1.0    4.5    5.0
N     3.2    0.6    2.5
C     4.6    0.4    2.5
H     2.8    1.4    1.9
H     5.1    1.3    2.9
H     5.0    0.3    1.4
H     4.8   -0.4    3.1
