          35
 sphere cut out from bulk 
C     1.1   -0.4    1.3
C     0.4    0.9    1.7
O     1.0    2.0    1.8
H     0.6   -1.0    0.6
H     1.2   -1.0    2.2
H     2.1   -0.1    0.9
N    -1.0    0.9    1.9
C    -1.9   -0.2    1.8
C    -3.1    0.3    1.0
O    -4.2    0.7    1.5
H    -1.4    1.8    2.2
H    -1.4   -1.0    1.3
C    -2.4   -0.6    3.2
C    -1.3   -1.2    4.1
C    -0.9   -2.7    3.7
N    -2.0   -3.6    3.8
C    -2.3   -4.2    5.0
N    -3.3   -5.2    4.9
N    -1.6   -3.9    6.1
H    -3.2   -1.3    3.1
H    -2.9    0.3    3.7
H    -1.7   -1.3    5.2
H    -0.4   -0.6    4.1
H    -0.1   -3.0    4.4
H    -0.5   -2.7    2.7
H    -2.1   -4.2    3.0
H    -3.6   -5.5    5.8
H    -4.0   -5.0    4.3
H    -2.0   -4.3    6.9
N    -3.0    0.2   -0.4
C    -1.8   -0.2   -1.1
H    -3.8    0.6   -0.9
H    -1.0    0.5   -1.0
H    -2.1   -0.2   -2.2
H    -1.5   -1.2   -0.9
