          35
 sphere cut out from bulk 
C    -1.6    2.0    2.8
C    -0.8    0.8    3.3
O     0.3    0.9    3.8
H    -0.9    2.5    2.1
H    -1.8    2.7    3.6
H    -2.5    1.8    2.2
N    -1.5   -0.4    3.2
C    -1.0   -1.6    3.8
C    -0.2   -2.5    2.9
O     0.3   -3.5    3.4
H    -2.5   -0.4    2.9
H    -0.3   -1.3    4.6
C    -2.2   -2.4    4.5
C    -3.0   -3.3    3.5
C    -3.9   -2.6    2.5
N    -4.6   -3.5    1.7
C    -4.1   -4.0    0.5
N    -5.0   -4.7   -0.3
N    -2.9   -3.8    0.1
H    -2.8   -1.7    5.0
H    -1.7   -3.1    5.2
H    -3.7   -4.0    4.2
H    -2.3   -4.0    3.0
H    -3.3   -1.9    1.9
H    -4.7   -2.0    3.1
H    -5.6   -3.4    1.6
H    -4.5   -5.2   -1.1
H    -5.5   -5.4    0.2
H    -2.3   -3.2    0.7
N    -0.1   -2.2    1.6
C     0.7   -2.9    0.7
H    -0.5   -1.3    1.4
H     0.1   -3.1   -0.3
H     1.0   -3.9    1.1
H     1.6   -2.4    0.4
