          35
 sphere cut out from bulk 
C    -0.7   -0.2   -0.4
C    -0.7    0.5    1.0
O    -0.0    1.4    1.3
H    -0.8    0.6   -1.1
H    -1.4   -1.0   -0.5
H     0.4   -0.6   -0.5
N    -1.6   -0.1    1.9
C    -1.8    0.4    3.3
C    -1.1   -0.7    4.2
O    -1.6   -1.8    4.3
H    -2.1   -0.9    1.6
H    -1.2    1.3    3.3
C    -3.2    0.6    3.7
C    -3.9    1.7    2.9
C    -5.3    1.9    3.2
N    -5.9    3.0    2.5
C    -7.3    3.4    2.7
N    -7.7    4.3    1.8
N    -8.1    2.9    3.6
H    -3.2    0.8    4.8
H    -3.8   -0.3    3.6
H    -3.8    1.5    1.8
H    -3.4    2.7    3.1
H    -5.5    2.1    4.3
H    -5.9    0.9    3.1
H    -5.6    3.1    1.6
H    -8.6    4.7    2.1
H    -7.0    5.1    1.7
H    -7.7    2.1    4.1
N     0.1   -0.4    4.8
C     0.8    0.8    4.7
H     0.4   -1.2    5.4
H     1.8    0.6    5.1
H     0.4    1.6    5.4
H     0.9    1.2    3.7
