          35
 sphere cut out from bulk 
C    -2.2    0.7    3.9
C    -1.1    0.9    2.8
O    -1.3    1.6    1.8
H    -2.4    1.7    4.3
H    -1.9   -0.0    4.7
H    -3.1    0.3    3.4
N     0.1    0.3    3.1
C     1.3    0.4    2.3
C     2.3   -0.5    3.0
O     2.2   -0.9    4.1
H     0.2   -0.2    4.0
H     1.0   -0.1    1.3
C     1.8    1.8    2.0
C     2.1    2.6    3.3
C     1.5    4.1    3.2
N     0.0    4.1    3.3
C    -0.6    4.2    4.6
N    -2.0    4.1    4.5
N    -0.0    4.3    5.7
H     0.9    2.3    1.4
H     2.6    1.8    1.4
H     3.1    2.7    3.5
H     1.6    2.1    4.2
H     1.8    4.5    2.2
H     1.9    4.7    4.0
H    -0.5    3.6    2.6
H    -2.4    4.4    5.4
H    -2.4    4.6    3.7
H     1.0    4.3    5.7
N     3.4   -0.7    2.2
C     4.6   -1.5    2.7
H     3.5   -0.3    1.3
H     4.3   -1.9    3.7
H     5.5   -0.9    2.8
H     4.8   -2.4    2.0
