          35
 sphere cut out from bulk 
C     0.7   -0.3   -0.2
C     0.2   -0.6    1.2
O     1.0   -0.9    2.1
H     1.4    0.5   -0.1
H    -0.2    0.1   -0.8
H     1.1   -1.2   -0.6
N    -1.1   -0.3    1.5
C    -1.7   -0.5    2.9
C    -2.0   -2.0    3.0
O    -3.2   -2.5    2.9
H    -1.7   -0.1    0.8
H    -0.9   -0.3    3.6
C    -2.9    0.4    3.1
C    -3.5    0.4    4.5
C    -4.9   -0.3    4.5
N    -5.9    0.4    3.7
C    -6.2   -0.0    2.4
N    -7.2    0.9    1.9
N    -5.8   -1.0    1.7
H    -3.6    0.2    2.3
H    -2.5    1.4    2.9
H    -3.6    1.4    4.9
H    -2.8   -0.2    5.2
H    -5.2   -0.3    5.6
H    -4.8   -1.3    4.2
H    -6.1    1.3    4.0
H    -7.5    0.5    1.0
H    -8.0    1.1    2.5
H    -5.1   -1.5    2.2
N    -0.9   -2.8    3.3
C    -1.0   -4.2    3.4
H    -0.0   -2.3    3.2
H    -0.4   -4.6    4.2
H    -0.6   -4.7    2.5
H    -2.1   -4.5    3.5
