          35
 sphere cut out from bulk 
C     1.3    2.3    1.9
C     0.4    1.6    2.9
O     0.1    2.2    4.0
H     2.2    2.7    2.4
H     0.7    3.2    1.5
H     1.5    1.6    1.0
N    -0.1    0.4    2.6
C    -1.0   -0.4    3.4
C    -1.1   -1.8    2.7
O    -0.8   -1.9    1.5
H     0.1   -0.0    1.7
H    -0.5   -0.5    4.4
C    -2.4    0.2    3.7
C    -3.2    0.7    2.5
C    -2.8    2.0    1.9
N    -2.6    3.1    2.9
C    -3.7    3.7    3.5
N    -3.3    4.5    4.5
N    -4.9    3.5    3.0
H    -2.2    1.1    4.4
H    -3.0   -0.5    4.2
H    -4.2    0.7    2.8
H    -3.2   -0.1    1.7
H    -3.6    2.4    1.2
H    -1.9    2.0    1.3
H    -1.8    3.0    3.4
H    -4.0    5.2    4.8
H    -2.4    5.0    4.4
H    -5.6    4.1    3.5
N    -1.5   -2.8    3.4
C    -1.9   -2.9    4.8
H    -1.6   -3.7    2.9
H    -1.3   -2.2    5.4
H    -1.6   -3.9    5.2
H    -2.9   -2.8    5.0
