          35
 sphere cut out from bulk 
C     0.7   -1.1   -0.0
C    -0.3   -0.3    0.9
O    -1.0    0.6    0.5
H     0.1   -1.5   -0.9
H     1.3   -1.9    0.5
H     1.4   -0.3   -0.4
N    -0.3   -0.8    2.2
C    -1.1   -0.2    3.2
C    -0.4   -0.7    4.6
O     0.7   -1.2    4.6
H     0.5   -1.4    2.5
H    -0.8    0.9    3.2
C    -2.6   -0.3    3.1
C    -3.1   -1.8    3.3
C    -4.6   -1.9    3.4
N    -5.3   -0.8    4.2
C    -5.0   -0.4    5.4
N    -5.6    0.8    5.8
N    -4.1   -0.9    6.3
H    -2.9    0.0    2.1
H    -3.0    0.3    3.9
H    -2.6   -2.2    4.2
H    -2.7   -2.4    2.5
H    -4.8   -2.9    3.8
H    -5.0   -1.9    2.4
H    -6.1   -0.5    3.8
H    -5.7    1.5    5.1
H    -5.3    1.1    6.7
H    -3.9   -1.9    6.0
N    -1.1   -0.4    5.7
C    -0.6   -0.9    7.0
H    -2.1   -0.2    5.7
H    -0.3   -1.9    7.0
H    -1.4   -0.8    7.7
H     0.2   -0.3    7.3
