          35
 sphere cut out from bulk 
C     1.4   -0.6    1.7
C     0.9   -1.2    3.0
O     1.8   -1.6    3.9
H     2.4   -0.3    1.8
H     0.7    0.2    1.4
H     1.3   -1.4    0.9
N    -0.4   -1.2    3.4
C    -1.5   -1.2    2.4
C    -2.8   -0.7    3.1
O    -3.7   -1.4    3.4
H    -0.6   -1.6    4.3
H    -1.2   -0.5    1.6
C    -1.8   -2.6    1.8
C    -1.9   -3.8    2.8
C    -1.1   -5.0    2.4
N     0.3   -4.8    2.4
C     1.1   -4.6    1.3
N     0.6   -5.1    0.1
N     2.3   -3.9    1.3
H    -0.9   -2.8    1.1
H    -2.6   -2.6    1.1
H    -3.0   -4.0    2.9
H    -1.6   -3.5    3.8
H    -1.4   -5.4    1.4
H    -1.4   -5.8    3.1
H     0.7   -4.4    3.3
H     1.4   -5.0   -0.6
H     0.2   -6.0    0.2
H     2.5   -3.5    2.2
N    -2.7    0.7    3.4
C    -1.7    1.6    3.1
H    -3.6    1.0    3.9
H    -2.0    2.6    3.4
H    -1.6    1.7    2.0
H    -0.8    1.4    3.6
