          35
 sphere cut out from bulk 
C    -1.3   -1.2    1.0
C    -0.3   -0.1    1.3
O    -0.1    0.8    0.5
H    -1.4   -2.0    1.8
H    -1.1   -1.7    0.1
H    -2.3   -0.8    0.9
N     0.5   -0.3    2.4
C     1.6    0.6    2.7
C     2.5   -0.2    3.7
O     2.1   -1.2    4.2
H     0.4   -1.1    3.0
H     2.1    0.8    1.8
C     1.1    1.9    3.4
C     0.3    1.8    4.6
C    -0.2    3.1    5.2
N    -1.0    4.0    4.4
C    -0.5    5.0    3.5
N     0.6    5.7    4.1
N    -0.9    5.3    2.4
H     0.5    2.5    2.6
H     2.0    2.6    3.5
H     0.8    1.2    5.4
H    -0.6    1.2    4.4
H     0.7    3.7    5.5
H    -0.8    2.9    6.2
H    -1.8    3.5    3.9
H     0.8    6.5    3.5
H     0.5    5.9    5.1
H    -1.5    4.6    2.0
N     3.7    0.4    3.9
C     4.7   -0.2    4.8
H     3.9    1.2    3.4
H     4.9    0.5    5.6
H     5.6   -0.5    4.3
H     4.2   -1.1    5.3
