          35
 sphere cut out from bulk 
C    -0.1   -0.3    1.9
C    -1.2   -0.8    2.8
O    -0.8   -1.6    3.7
H    -0.5   -0.3    0.8
H     0.8   -0.8    2.0
H     0.1    0.8    2.1
N    -2.5   -0.4    2.8
C    -3.2    0.4    1.8
C    -3.4   -0.3    0.4
O    -2.6   -1.2    0.0
H    -3.0   -0.9    3.4
H    -4.2    0.6    2.2
C    -2.6    1.8    1.5
C    -2.4    2.6    2.8
C    -2.2    4.1    2.5
N    -3.3    4.9    1.9
C    -3.7    4.8    0.6
N    -2.6    4.8   -0.3
N    -4.9    4.8    0.1
H    -3.3    2.3    0.8
H    -1.7    1.7    1.0
H    -1.6    2.2    3.4
H    -3.3    2.6    3.4
H    -1.3    4.2    1.8
H    -1.9    4.6    3.4
H    -4.1    4.9    2.5
H    -2.9    4.9   -1.2
H    -1.8    5.4   -0.1
H    -5.5    4.7    0.9
N    -4.5    0.0   -0.3
C    -5.5    1.0   -0.0
H    -4.5   -0.5   -1.2
H    -5.2    2.0   -0.3
H    -5.8    1.0    1.0
H    -6.4    0.8   -0.6
