          35
 sphere cut out from bulk 
C     1.8    0.3    0.8
C     1.0    0.7    2.1
O     1.6    1.1    3.1
H     2.4    1.2    0.5
H     1.1    0.0   -0.0
H     2.5   -0.5    1.0
N    -0.3    0.5    2.0
C    -1.1    0.6    3.3
C    -2.4   -0.2    3.1
O    -2.7   -1.1    3.9
H    -0.7   -0.0    1.3
H    -0.6    0.1    4.1
C    -1.4    2.1    3.7
C    -2.1    2.2    5.0
C    -3.6    2.1    5.0
N    -4.2    2.4    6.3
C    -4.9    3.6    6.5
N    -4.5    4.7    5.7
N    -5.8    3.8    7.4
H    -1.9    2.6    2.9
H    -0.4    2.5    3.8
H    -1.8    3.2    5.4
H    -1.7    1.5    5.8
H    -3.9    1.1    4.8
H    -4.0    2.7    4.2
H    -4.5    1.6    6.8
H    -3.5    4.8    5.6
H    -5.0    5.5    6.0
H    -6.1    2.9    7.9
N    -3.3   -0.0    2.0
C    -3.3    1.1    1.1
H    -4.1   -0.6    2.1
H    -4.0    1.9    1.6
H    -3.8    0.8    0.2
H    -2.4    1.6    1.0
