          35
 sphere cut out from bulk 
C    -0.9    0.8    0.1
C    -0.8    0.5    1.6
O     0.3    0.2    2.1
H    -0.8   -0.1   -0.4
H    -0.2    1.5   -0.2
H    -1.9    1.2   -0.1
N    -1.9    0.7    2.4
C    -2.1    0.4    3.8
C    -2.2    1.6    4.8
O    -3.0    1.6    5.7
H    -2.7    1.0    1.9
H    -3.2    0.1    3.8
C    -1.3   -0.8    4.4
C     0.0   -0.6    5.1
C    -0.0   -0.0    6.5
N    -0.8   -0.9    7.4
C    -1.4   -0.5    8.5
N    -2.0    0.8    8.4
N    -1.4   -1.2    9.6
H    -1.3   -1.5    3.6
H    -2.0   -1.2    5.2
H     0.7    0.1    4.5
H     0.5   -1.5    5.1
H    -0.5    1.0    6.6
H     1.0    0.1    6.9
H    -0.3   -1.8    7.6
H    -2.7    1.0    9.2
H    -2.4    1.0    7.5
H    -2.1   -0.8   10.3
N    -1.3    2.7    4.6
C    -0.2    2.9    3.7
H    -1.5    3.4    5.3
H     0.5    3.5    4.2
H    -0.5    3.4    2.8
H     0.3    2.0    3.5
