          35
 sphere cut out from bulk 
C    -2.0   -0.8    1.1
C    -0.7   -0.0    1.4
O     0.4   -0.6    1.5
H    -2.5   -0.3    0.2
H    -2.7   -0.7    1.9
H    -1.8   -1.8    0.8
N    -0.8    1.3    1.6
C    -2.0    2.1    1.9
C    -1.8    3.5    1.3
O    -2.5    4.5    1.8
H     0.1    1.7    2.0
H    -2.8    1.6    1.3
C    -2.4    2.1    3.3
C    -3.9    2.1    3.5
C    -4.4    1.8    4.9
N    -3.9    0.6    5.5
C    -4.1   -0.7    5.0
N    -3.4   -1.6    5.8
N    -4.8   -0.9    4.0
H    -1.9    2.9    3.9
H    -2.0    1.1    3.8
H    -4.4    1.4    2.8
H    -4.3    3.1    3.2
H    -5.5    1.7    4.9
H    -4.2    2.6    5.6
H    -3.0    0.7    6.1
H    -3.6   -2.6    5.5
H    -3.4   -1.5    6.8
H    -4.9   -1.9    3.8
N    -1.0    3.7    0.2
C    -0.8    4.9   -0.5
H    -0.6    2.8   -0.1
H    -1.2    4.9   -1.5
H     0.2    5.2   -0.5
H    -1.4    5.7    0.1
