          35
 sphere cut out from bulk 
C    -0.7   -1.2    0.4
C    -0.3   -0.4    1.7
O     0.8   -0.6    2.3
H     0.2   -1.8    0.2
H    -0.8   -0.5   -0.4
H    -1.6   -1.7    0.6
N    -1.2    0.6    2.1
C    -2.5    0.8    1.6
C    -2.8    2.3    1.3
O    -3.9    2.8    1.6
H    -0.9    0.9    3.1
H    -2.6    0.3    0.7
C    -3.6    0.3    2.6
C    -3.6    1.0    4.0
C    -3.4    0.0    5.2
N    -2.2   -0.8    5.2
C    -0.9   -0.4    5.1
N     0.1   -1.4    5.2
N    -0.7    0.9    5.1
H    -3.4   -0.8    2.7
H    -4.6    0.4    2.1
H    -4.5    1.5    4.2
H    -2.8    1.8    4.0
H    -4.2   -0.6    5.3
H    -3.3    0.7    6.1
H    -2.3   -1.8    4.8
H    -0.2   -2.3    5.1
H     0.8   -1.2    4.4
H     0.3    1.1    5.2
N    -1.8    3.1    0.8
C    -0.5    2.7    0.2
H    -2.1    4.0    0.6
H    -0.1    3.5   -0.4
H    -0.6    1.8   -0.4
H     0.2    2.5    1.0
