          35
 sphere cut out from bulk 
C     0.0    1.5    0.6
C    -0.0    0.4    1.7
O     0.8   -0.5    1.8
H     1.0    2.0    0.6
H    -0.7    2.3    0.7
H    -0.1    1.0   -0.4
N    -1.1    0.6    2.6
C    -1.4   -0.5    3.5
C    -2.9   -0.9    3.3
O    -3.1   -2.1    3.0
H    -1.8    1.2    2.3
H    -0.8   -1.4    3.2
C    -1.1   -0.2    5.0
C     0.3   -0.3    5.5
C     1.3    0.7    4.9
N     0.9    2.1    4.7
C     0.3    2.9    5.8
N     0.9    2.6    7.0
N    -0.6    3.8    5.7
H    -1.7   -0.9    5.6
H    -1.5    0.8    5.3
H     0.7   -1.3    5.2
H     0.3   -0.2    6.6
H     1.6    0.4    3.9
H     2.3    0.7    5.5
H     0.3    2.2    3.9
H     1.9    2.3    7.0
H     0.6    3.3    7.7
H    -0.9    3.8    4.7
N    -3.9   -0.0    3.4
C    -3.9    1.3    4.1
H    -4.8   -0.5    3.3
H    -4.7    1.9    3.7
H    -3.0    1.8    4.0
H    -4.1    1.2    5.2
