          35
 sphere cut out from bulk 
C    -0.6   -0.4   -0.1
C    -0.2   -0.1    1.3
O     1.0    0.1    1.7
H     0.0   -1.2   -0.5
H    -0.3    0.5   -0.7
H    -1.6   -0.6   -0.3
N    -1.2   -0.1    2.2
C    -1.1    0.1    3.6
C    -0.6   -1.1    4.4
O    -1.3   -1.7    5.2
H    -2.2   -0.4    1.9
H    -0.3    0.9    3.7
C    -2.4    0.7    4.2
C    -2.7    2.1    3.7
C    -4.0    2.7    4.2
N    -4.2    2.7    5.7
C    -5.0    1.8    6.3
N    -5.1    2.0    7.7
N    -5.7    0.9    5.7
H    -2.3    0.7    5.3
H    -3.2    0.0    4.0
H    -2.7    2.2    2.6
H    -1.9    2.8    4.1
H    -4.8    2.1    3.8
H    -4.2    3.7    3.8
H    -4.0    3.6    6.1
H    -5.5    1.3    8.2
H    -4.2    2.3    8.1
H    -6.2    0.3    6.3
N     0.7   -1.5    4.1
C     1.3   -2.7    4.7
H     1.1   -1.0    3.4
H     2.2   -2.5    5.1
H     1.4   -3.5    3.9
H     0.6   -3.1    5.4
