          35
 sphere cut out from bulk 
C     0.4    0.2    0.3
C     0.0    0.3    1.8
O     0.8    0.9    2.5
H     0.3    1.2   -0.1
H    -0.3   -0.5   -0.3
H     1.4   -0.1    0.2
N    -1.1   -0.3    2.1
C    -1.8   -0.4    3.4
C    -2.7    0.8    4.0
O    -3.4    0.5    5.0
H    -1.6   -0.7    1.4
H    -2.6   -1.1    3.2
C    -1.0   -1.1    4.6
C     0.2   -0.4    5.3
C    -0.1    0.7    6.3
N    -0.8    1.9    5.8
C    -0.2    3.0    5.3
N     1.1    2.9    4.9
N    -0.9    4.1    5.4
H    -0.6   -2.0    4.1
H    -1.7   -1.4    5.3
H     0.9   -0.0    4.5
H     0.7   -1.2    5.8
H     0.8    1.0    6.8
H    -0.8    0.3    7.1
H    -1.8    2.0    6.1
H     1.5    3.8    4.5
H     1.2    2.1    4.3
H    -0.4    4.9    5.0
N    -2.8    1.9    3.3
C    -2.0    2.6    2.4
H    -3.5    2.5    3.9
H    -2.2    3.7    2.4
H    -2.2    2.3    1.3
H    -0.9    2.5    2.6
