          35
 sphere cut out from bulk 
C    -0.2    0.3   -0.7
C     0.5    0.7    0.6
O     1.7    1.0    0.6
H    -1.2    0.7   -0.8
H    -0.2   -0.8   -0.8
H     0.5    0.7   -1.5
N    -0.2    0.6    1.8
C    -1.6    0.4    2.1
C    -2.2   -0.9    1.4
O    -3.0   -0.8    0.5
H     0.4    0.9    2.6
H    -1.6    0.2    3.1
C    -2.4    1.6    1.8
C    -4.0    1.6    2.1
C    -4.4    1.2    3.5
N    -4.0   -0.1    4.0
C    -4.6   -1.4    3.7
N    -5.3   -1.4    2.5
N    -4.6   -2.4    4.5
H    -2.3    1.9    0.8
H    -2.0    2.4    2.4
H    -4.4    0.9    1.3
H    -4.4    2.6    1.9
H    -5.5    1.2    3.5
H    -4.0    1.9    4.2
H    -3.6   -0.1    4.9
H    -5.7   -2.4    2.4
H    -4.8   -1.1    1.7
H    -4.2   -2.1    5.4
N    -1.7   -2.1    1.8
C    -0.9   -2.3    3.0
H    -2.2   -2.9    1.4
H    -0.7   -3.4    3.0
H    -1.5   -2.1    4.0
H    -0.0   -1.7    3.0
