          35
 sphere cut out from bulk 
C     2.5   -0.1    1.8
C     1.3   -0.9    2.2
O     1.4   -2.1    2.7
H     3.0   -0.6    1.0
H     3.2   -0.0    2.6
H     2.2    0.9    1.5
N     0.1   -0.3    2.1
C    -1.2   -0.9    2.3
C    -1.6   -1.2    3.8
O    -2.7   -0.8    4.2
H     0.1    0.6    1.8
H    -1.9   -0.2    2.0
C    -1.5   -2.2    1.5
C    -1.4   -2.0   -0.0
C    -1.6   -3.3   -0.8
N    -1.4   -3.0   -2.3
C    -1.6   -4.0   -3.2
N    -1.2   -5.3   -2.8
N    -2.0   -3.8   -4.4
H    -2.5   -2.6    1.7
H    -0.8   -3.0    1.8
H    -0.4   -1.6   -0.3
H    -2.1   -1.2   -0.3
H    -2.5   -3.7   -0.6
H    -0.8   -4.0   -0.5
H    -1.8   -2.1   -2.5
H    -1.2   -5.9   -3.6
H    -0.4   -5.3   -2.2
H    -2.4   -2.9   -4.6
N    -0.7   -1.8    4.5
C    -0.9   -2.2    5.9
H     0.1   -2.1    4.0
H    -0.1   -1.8    6.5
H    -1.0   -3.2    6.1
H    -1.9   -1.7    6.2
