          35
 sphere cut out from bulk 
C     0.7   -0.0    0.4
C     0.0    0.8    1.5
O     0.2    2.0    1.6
H     1.8    0.0    0.6
H     0.5    0.4   -0.6
H     0.4   -1.1    0.5
N    -0.8    0.2    2.3
C    -1.6    0.8    3.4
C    -1.9   -0.3    4.4
O    -2.1   -1.4    4.0
H    -1.0   -0.8    2.2
H    -1.0    1.6    3.8
C    -2.9    1.4    2.8
C    -3.8    2.2    3.8
C    -3.3    3.5    4.4
N    -2.6    4.3    3.5
C    -1.2    4.3    3.4
N    -0.7    4.9    2.2
N    -0.6    3.8    4.3
H    -3.5    0.6    2.4
H    -2.6    2.1    2.0
H    -4.1    1.5    4.7
H    -4.8    2.4    3.3
H    -2.6    3.3    5.2
H    -4.2    4.0    4.8
H    -3.1    4.5    2.6
H     0.1    4.4    1.9
H    -1.4    5.1    1.5
H     0.5    3.9    4.2
N    -1.8   -0.0    5.7
C    -1.4    1.2    6.4
H    -2.0   -0.8    6.3
H    -0.5    0.9    7.1
H    -2.2    1.6    7.0
H    -1.0    1.9    5.7
