          35
 sphere cut out from bulk 
C     2.2    0.1    2.8
C     1.2    0.0    3.9
O     1.6   -0.0    5.1
H     2.8   -0.8    2.8
H     2.9    1.0    3.0
H     1.8    0.3    1.8
N    -0.1   -0.0    3.5
C    -1.2   -0.3    4.4
C    -1.3    0.6    5.7
O    -1.8    0.2    6.7
H    -0.3   -0.1    2.5
H    -2.1    0.0    3.8
C    -1.5   -1.8    4.7
C    -0.4   -2.5    5.5
C     0.6   -3.3    4.6
N     1.6   -4.0    5.4
C     3.0   -3.8    5.4
N     3.3   -2.5    5.0
N     3.8   -4.8    5.7
H    -1.7   -2.3    3.8
H    -2.4   -1.8    5.3
H    -0.9   -3.3    6.2
H     0.1   -1.9    6.2
H     1.1   -2.6    4.0
H     0.1   -4.0    4.0
H     1.4   -5.0    5.6
H     4.3   -2.3    5.2
H     2.7   -1.7    5.3
H     4.7   -4.5    5.8
N    -0.9    1.9    5.5
C    -0.8    2.8    6.6
H    -0.3    2.1    4.7
H    -1.0    3.8    6.2
H     0.2    2.8    7.1
H    -1.6    2.5    7.3
