          35
 sphere cut out from bulk 
C    -0.9    0.6   -2.4
C    -0.2    0.7   -1.1
O     1.0    0.8   -0.9
H    -0.1    0.8   -3.2
H    -1.7    1.4   -2.5
H    -1.3   -0.3   -2.6
N    -1.0    0.6    0.1
C    -2.4    0.2    0.1
C    -3.4    1.4    0.0
O    -4.6    1.3   -0.2
H    -0.5    0.6    0.9
H    -2.6   -0.3   -0.8
C    -2.7   -0.7    1.3
C    -4.1   -1.3    1.5
C    -4.6   -2.1    0.2
N    -3.7   -3.1   -0.2
C    -2.9   -3.0   -1.4
N    -2.0   -4.0   -1.5
N    -3.0   -2.2   -2.4
H    -2.4   -0.1    2.2
H    -1.9   -1.5    1.2
H    -4.8   -0.5    1.7
H    -4.1   -1.9    2.4
H    -4.8   -1.4   -0.6
H    -5.5   -2.5    0.5
H    -3.6   -3.9    0.3
H    -1.4   -3.9   -2.3
H    -1.4   -4.2   -0.6
H    -3.9   -1.6   -2.3
N    -2.8    2.6    0.2
C    -3.6    3.9    0.2
H    -1.8    2.7    0.3
H    -3.2    4.5   -0.6
H    -3.5    4.5    1.1
H    -4.6    3.6    0.0
