          35
 sphere cut out from bulk 
C    -0.1   -0.1    0.0
C    -0.0    0.1    1.5
O     1.1    0.2    2.1
H     0.8   -0.3   -0.4
H    -0.5    0.8   -0.5
H    -0.8   -0.9   -0.2
N    -1.1    0.1    2.3
C    -2.5    0.2    1.9
C    -3.0   -1.0    1.1
O    -2.9   -2.2    1.5
H    -0.9    0.1    3.3
H    -3.1    0.0    2.9
C    -2.9    1.6    1.4
C    -2.7    2.7    2.4
C    -1.3    3.2    2.6
N    -0.5    3.4    1.4
C    -0.9    4.0    0.2
N    -1.6    5.2    0.4
N    -0.6    3.4   -0.9
H    -4.0    1.5    1.1
H    -2.4    1.8    0.5
H    -3.2    2.5    3.3
H    -3.3    3.6    2.0
H    -0.7    2.6    3.2
H    -1.3    4.2    3.1
H     0.1    2.6    1.2
H    -1.8    5.7   -0.4
H    -1.3    5.7    1.2
H    -0.8    4.1   -1.7
N    -3.5   -0.8   -0.1
C    -4.0   -1.8   -1.1
H    -3.5    0.2   -0.5
H    -4.9   -1.6   -1.5
H    -4.1   -2.7   -0.5
H    -3.2   -2.0   -1.9
