          35
 sphere cut out from bulk 
C     1.6   -0.5    0.7
C     1.1    0.1    2.0
O     1.8    0.6    2.9
H     1.9   -1.5    0.9
H     2.4    0.1    0.4
H     0.8   -0.5   -0.1
N    -0.3    0.2    2.1
C    -1.0    0.5    3.4
C    -0.6    1.9    4.0
O    -0.6    2.0    5.3
H    -0.8   -0.2    1.4
H    -2.0    0.8    3.0
C    -1.2   -0.7    4.3
C     0.0   -1.4    4.8
C     0.9   -0.7    5.8
N     0.3   -0.2    7.0
C    -0.3   -1.1    7.9
N     0.3   -2.3    8.1
N    -1.5   -0.8    8.4
H    -1.9   -1.4    3.8
H    -1.8   -0.3    5.2
H     0.6   -1.7    3.9
H    -0.3   -2.4    5.3
H     1.4    0.2    5.3
H     1.8   -1.4    6.1
H    -0.3    0.6    6.9
H    -0.0   -2.8    8.9
H     1.3   -2.2    8.1
H    -1.7   -1.4    9.2
N    -0.2    2.9    3.2
C     0.3    4.1    3.6
H    -0.0    2.6    2.2
H     0.0    4.9    3.0
H     1.4    4.1    3.7
H    -0.1    4.3    4.6
