          35
 sphere cut out from bulk 
C     0.2   -0.3    0.1
C     0.2    0.2    1.5
O     1.2    0.8    2.0
H    -0.7   -0.8   -0.2
H     1.0   -1.0   -0.0
H     0.4    0.6   -0.6
N    -1.0   -0.0    2.2
C    -1.2    0.5    3.6
C    -0.5   -0.6    4.6
O    -1.2   -1.3    5.3
H    -1.7   -0.5    1.8
H    -0.6    1.4    3.7
C    -2.6    0.7    3.9
C    -2.9    1.3    5.2
C    -4.2    0.8    5.9
N    -4.0   -0.6    6.2
C    -4.8   -1.3    7.1
N    -6.0   -0.7    7.5
N    -4.5   -2.4    7.7
H    -3.1   -0.3    3.8
H    -3.1    1.3    3.1
H    -3.0    2.4    5.1
H    -2.0    1.2    5.9
H    -5.0    1.0    5.3
H    -4.3    1.4    6.9
H    -3.1   -1.0    6.0
H    -6.6   -1.3    8.0
H    -6.5   -0.2    6.7
H    -3.5   -2.7    7.4
N     0.8   -0.5    4.6
C     1.6   -1.5    5.4
H     1.3    0.1    3.9
H     2.0   -2.3    4.8
H     1.0   -1.9    6.2
H     2.5   -0.9    5.9
