          35
 sphere cut out from bulk 
C     0.7   -3.8    3.2
C    -0.1   -2.8    2.4
O     0.5   -2.0    1.6
H     0.2   -4.2    4.1
H     1.7   -3.4    3.5
H     0.9   -4.7    2.5
N    -1.4   -2.8    2.7
C    -2.3   -1.8    2.1
C    -2.2   -0.5    3.0
O    -3.2   -0.1    3.7
H    -1.7   -3.2    3.6
H    -1.8   -1.5    1.1
C    -3.7   -2.3    1.8
C    -4.3   -3.3    2.8
C    -4.8   -2.8    4.2
N    -4.6   -3.8    5.3
C    -3.3   -4.0    5.7
N    -3.1   -5.3    6.2
N    -2.3   -3.3    5.6
H    -3.7   -2.8    0.8
H    -4.4   -1.5    1.7
H    -3.6   -4.1    3.0
H    -5.1   -3.9    2.3
H    -5.9   -2.6    4.1
H    -4.3   -1.9    4.4
H    -5.2   -4.6    5.2
H    -4.0   -5.8    6.6
H    -2.3   -5.4    6.8
H    -2.6   -2.3    5.3
N    -1.1    0.2    2.8
C    -0.8    1.4    3.5
H    -0.4   -0.2    2.2
H    -0.4    2.2    2.9
H    -0.0    1.2    4.3
H    -1.7    1.8    4.0
