          35
 sphere cut out from bulk 
C    -0.4   -0.5   -0.3
C    -0.2   -0.4    1.2
O     0.9   -0.5    1.8
H     0.6   -0.7   -0.7
H    -0.7    0.5   -0.8
H    -1.1   -1.2   -0.6
N    -1.4   -0.1    1.9
C    -2.7    0.3    1.4
C    -2.7    1.7    0.8
O    -3.4    1.8   -0.3
H    -1.2   -0.0    2.9
H    -3.0   -0.4    0.6
C    -3.7    0.2    2.5
C    -4.2   -1.3    2.8
C    -3.2   -2.2    3.5
N    -3.8   -3.5    3.9
C    -4.5   -3.6    5.1
N    -5.1   -4.8    5.2
N    -4.7   -2.7    6.0
H    -4.6    0.8    2.2
H    -3.4    0.6    3.4
H    -4.6   -1.7    1.9
H    -5.1   -1.2    3.5
H    -2.7   -1.7    4.3
H    -2.4   -2.4    2.8
H    -4.0   -4.1    3.2
H    -5.5   -4.9    6.2
H    -4.5   -5.6    5.0
H    -4.3   -1.8    5.7
N    -2.1    2.7    1.3
C    -1.3    2.8    2.5
H    -2.2    3.6    0.7
H    -1.8    2.4    3.4
H    -1.1    3.9    2.7
H    -0.3    2.4    2.4
