          35
 sphere cut out from bulk 
C     0.2   -0.2    1.3
C    -0.3   -1.1    2.4
O     0.5   -1.5    3.3
H    -0.4   -0.4    0.3
H     1.2   -0.5    1.1
H     0.1    0.8    1.6
N    -1.6   -1.4    2.5
C    -2.8   -0.9    1.8
C    -2.7   -1.3    0.3
O    -2.5   -2.5   -0.0
H    -1.8   -2.1    3.3
H    -3.6   -1.5    2.1
C    -3.0    0.6    2.1
C    -3.3    0.9    3.6
C    -2.0    1.0    4.5
N    -1.0    2.0    3.9
C     0.2    2.1    4.5
N     0.8    1.0    5.0
N     0.9    3.3    4.5
H    -4.0    0.9    1.6
H    -2.2    1.2    1.7
H    -4.0    0.2    4.0
H    -3.8    1.9    3.6
H    -1.5    0.1    4.6
H    -2.3    1.3    5.5
H    -1.4    2.9    3.7
H     1.8    1.2    5.2
H     0.7    0.1    4.5
H     0.3    4.1    4.2
N    -3.0   -0.3   -0.6
C    -3.0   -0.6   -2.1
H    -3.1    0.6   -0.3
H    -3.9   -0.2   -2.5
H    -2.9   -1.7   -2.2
H    -2.1   -0.1   -2.6
