          35
 sphere cut out from bulk 
C     0.6    0.2    0.3
C     0.3    0.3    1.8
O     1.1    0.7    2.6
H     1.6   -0.1    0.2
H     0.6    1.3   -0.1
H    -0.1   -0.3   -0.3
N    -0.9   -0.2    2.1
C    -1.5   -0.1    3.5
C    -1.2    1.3    4.1
O    -1.7    2.3    3.5
H    -1.6   -0.4    1.4
H    -2.6   -0.1    3.4
C    -1.1   -1.3    4.4
C     0.3   -1.8    4.5
C     0.6   -2.9    5.4
N    -0.2   -4.2    5.2
C     0.2   -5.0    4.1
N    -0.7   -6.0    3.9
N     1.2   -4.8    3.4
H    -1.7   -2.2    4.0
H    -1.5   -1.1    5.4
H     1.0   -0.9    4.8
H     0.7   -2.1    3.5
H     0.3   -2.6    6.5
H     1.6   -3.2    5.4
H    -1.2   -4.1    5.4
H    -0.4   -6.8    3.3
H    -1.1   -6.5    4.8
H     1.4   -5.5    2.8
N    -0.6    1.4    5.3
C    -0.2    2.7    5.8
H    -0.0    0.6    5.5
H     0.0    2.6    6.9
H    -1.0    3.4    5.7
H     0.7    3.1    5.3
