          35
 sphere cut out from bulk 
C    -0.1    0.1   -0.0
C    -0.1    0.1    1.5
O     1.0    0.1    2.1
H    -1.1    0.1   -0.4
H     0.4   -0.8   -0.4
H     0.4    1.0   -0.3
N    -1.3   -0.0    2.1
C    -1.6   -0.1    3.5
C    -1.3    1.2    4.4
O    -2.2    1.7    5.0
H    -2.1    0.0    1.5
H    -2.7   -0.2    3.6
C    -1.0   -1.4    4.2
C    -1.3   -1.5    5.7
C    -0.8   -2.8    6.2
N    -1.0   -3.0    7.7
C    -0.2   -2.4    8.6
N    -0.6   -2.6    9.9
N     0.9   -1.8    8.2
H     0.1   -1.3    4.1
H    -1.3   -2.2    3.6
H    -2.4   -1.5    5.8
H    -0.9   -0.7    6.2
H     0.3   -2.9    6.1
H    -1.2   -3.7    5.7
H    -2.0   -3.1    7.9
H    -0.3   -1.9   10.6
H    -1.6   -2.9   10.1
H     1.4   -1.5    9.0
N     0.0    1.6    4.3
C     0.5    2.8    5.1
H     0.6    1.1    3.7
H     1.2    2.5    5.8
H    -0.4    3.2    5.6
H     0.9    3.5    4.4
