          35
 sphere cut out from bulk 
C     0.5   -1.5    1.3
C     0.2   -1.1    2.7
O     0.9   -1.6    3.7
H    -0.3   -2.2    0.9
H     1.4   -1.9    1.2
H     0.4   -0.6    0.7
N    -0.9   -0.4    2.9
C    -1.3    0.1    4.2
C    -2.8    0.4    4.3
O    -3.4    0.7    3.2
H    -1.4   -0.0    2.1
H    -1.1   -0.7    4.9
C    -0.5    1.3    4.8
C    -1.0    2.8    4.6
C    -1.4    3.2    3.1
N    -0.4    2.8    2.1
C    -0.7    2.2    0.9
N    -2.0    1.8    0.7
N     0.2    1.9   -0.0
H     0.5    1.2    4.3
H    -0.3    1.2    5.8
H    -0.2    3.4    5.0
H    -1.9    2.9    5.2
H    -1.4    4.3    3.1
H    -2.3    2.9    2.9
H     0.6    3.1    2.2
H    -2.1    1.3   -0.2
H    -2.6    1.6    1.5
H     1.1    2.3    0.2
N    -3.4    0.2    5.5
C    -4.8    0.5    5.7
H    -2.9   -0.1    6.2
H    -5.2    0.9    4.8
H    -4.9    1.3    6.5
H    -5.4   -0.4    6.0
