          35
 sphere cut out from bulk 
C    -0.2   -0.0    0.1
C    -0.1    0.1    1.6
O     0.9    0.4    2.1
H    -1.2   -0.2   -0.3
H     0.4   -0.9   -0.2
H     0.2    0.9   -0.4
N    -1.3   -0.0    2.2
C    -1.7   -0.0    3.6
C    -2.4    1.2    4.1
O    -3.5    1.1    4.7
H    -2.1   -0.2    1.6
H    -2.4   -0.8    3.8
C    -0.5   -0.4    4.6
C     0.0   -1.8    4.4
C     1.1   -2.1    5.5
N     1.6   -3.5    5.2
C     2.3   -4.1    6.2
N     2.9   -5.3    5.8
N     2.4   -3.6    7.4
H    -1.0   -0.3    5.6
H     0.3    0.3    4.5
H     0.5   -1.9    3.4
H    -0.8   -2.5    4.5
H     0.7   -2.1    6.5
H     1.9   -1.4    5.5
H     2.0   -3.6    4.3
H     3.3   -5.9    6.5
H     2.4   -5.8    5.1
H     2.9   -4.2    8.1
N    -1.9    2.5    3.9
C    -0.7    2.9    3.2
H    -2.5    3.2    4.2
H     0.1    2.1    3.2
H    -0.3    3.8    3.7
H    -0.8    3.2    2.1
