          35
 sphere cut out from bulk 
C    -0.4   -0.4    0.5
C    -0.4   -0.1    2.0
O     0.5   -0.6    2.7
H     0.6   -0.4    0.1
H    -1.0    0.4   -0.1
H    -0.9   -1.4    0.4
N    -1.4    0.7    2.5
C    -1.8    0.8    3.9
C    -0.6    0.6    4.9
O    -0.7   -0.3    5.8
H    -2.1    0.9    1.8
H    -2.1    1.9    4.0
C    -3.0   -0.1    4.2
C    -3.2   -1.4    3.6
C    -2.1   -2.5    4.0
N    -2.4   -3.8    3.5
C    -2.4   -4.2    2.2
N    -2.8   -5.5    2.0
N    -2.0   -3.4    1.3
H    -3.9    0.5    4.0
H    -3.0   -0.1    5.3
H    -3.2   -1.4    2.5
H    -4.2   -1.8    3.9
H    -2.0   -2.5    5.0
H    -1.1   -2.2    3.5
H    -3.1   -4.3    4.1
H    -2.6   -5.9    1.1
H    -2.5   -6.2    2.7
H    -1.9   -3.9    0.4
N     0.4    1.5    4.9
C     0.7    2.5    3.9
H     1.1    1.3    5.5
H     1.3    3.3    4.3
H    -0.2    3.0    3.5
H     1.2    2.0    3.0
