          35
 sphere cut out from bulk 
C     1.0    0.8    0.8
C     1.0   -0.1    2.1
O     2.0   -0.5    2.6
H     2.1    0.9    0.5
H     0.5    1.8    0.9
H     0.5    0.3   -0.0
N    -0.2   -0.4    2.6
C    -1.6    0.1    2.2
C    -2.1    0.8    3.4
O    -2.4    0.2    4.4
H    -0.2   -0.9    3.5
H    -1.4    0.8    1.4
C    -2.5   -1.1    1.8
C    -2.0   -1.9    0.6
C    -2.6   -1.5   -0.8
N    -2.1   -0.2   -1.3
C    -2.6    1.1   -0.9
N    -3.9    1.1   -0.4
N    -2.0    2.2   -1.0
H    -3.5   -0.7    1.7
H    -2.5   -1.7    2.7
H    -2.3   -2.9    0.7
H    -0.9   -1.9    0.5
H    -3.7   -1.4   -0.7
H    -2.4   -2.2   -1.5
H    -1.2   -0.2   -1.6
H    -4.3    2.1   -0.4
H    -4.6    0.5   -0.9
H    -1.0    2.0   -1.3
N    -2.3    2.2    3.4
C    -1.9    3.1    2.4
H    -2.7    2.5    4.3
H    -2.5    4.0    2.5
H    -2.0    2.8    1.4
H    -0.8    3.4    2.5
