          35
 sphere cut out from bulk 
C    -0.6   -2.8    0.8
C    -0.3   -1.6    1.7
O     0.7   -1.4    2.3
H     0.0   -3.6    1.2
H    -0.3   -2.6   -0.2
H    -1.7   -3.1    0.8
N    -1.3   -0.6    1.7
C    -2.6   -0.5    1.1
C    -3.6   -1.6    1.5
O    -4.1   -2.4    0.7
H    -1.0    0.2    2.3
H    -3.0    0.5    1.5
C    -2.6   -0.3   -0.5
C    -1.5    0.6   -1.0
C    -1.7    2.1   -0.6
N    -0.8    3.0   -1.2
C    -0.8    3.3   -2.6
N    -2.1    3.3   -3.2
N     0.2    3.5   -3.3
H    -3.6   -0.1   -0.8
H    -2.4   -1.4   -0.9
H    -1.6    0.6   -2.1
H    -0.5    0.3   -0.7
H    -1.6    2.2    0.5
H    -2.8    2.4   -0.8
H     0.2    3.0   -0.9
H    -2.0    3.7   -4.1
H    -2.8    3.8   -2.6
H     1.1    3.3   -2.8
N    -3.8   -1.7    2.8
C    -3.3   -0.9    3.9
H    -4.4   -2.5    3.1
H    -4.0   -1.0    4.8
H    -3.4    0.2    3.7
H    -2.3   -1.1    4.2
