          35
 sphere cut out from bulk 
C    -1.0    0.8    0.6
C    -1.2   -0.3    1.6
O    -1.0   -1.5    1.3
H    -1.3    1.8    0.9
H    -1.5    0.5   -0.4
H     0.1    0.8    0.3
N    -1.8    0.0    2.8
C    -2.0   -0.9    3.9
C    -3.5   -0.8    4.3
O    -3.8   -0.4    5.5
H    -1.9    1.0    2.9
H    -1.9   -1.9    3.4
C    -0.9   -0.8    5.0
C    -0.4    0.6    5.4
C    -1.2    1.4    6.4
N    -1.2    0.7    7.7
C    -2.2    0.8    8.6
N    -3.5    0.9    8.1
N    -1.9    0.9    9.9
H    -0.1   -1.4    4.6
H    -1.3   -1.3    5.9
H    -0.3    1.2    4.5
H     0.6    0.5    5.8
H    -2.3    1.5    6.1
H    -0.8    2.4    6.5
H    -0.3    0.8    8.2
H    -3.7    0.4    7.3
H    -4.2    0.8    8.8
H    -2.7    0.9   10.5
N    -4.4   -1.2    3.5
C    -4.3   -1.7    2.1
H    -5.4   -1.1    3.8
H    -5.1   -2.4    1.9
H    -3.4   -2.2    2.0
H    -4.3   -0.9    1.4
