          35
 sphere cut out from bulk 
C     0.8   -0.2   -0.1
C     0.3    0.0    1.3
O     0.8   -0.6    2.2
H     1.9    0.0   -0.1
H     0.4    0.5   -0.9
H     0.7   -1.2   -0.4
N    -0.7    0.9    1.4
C    -1.4    1.2    2.6
C    -2.9    1.4    2.3
O    -3.2    1.8    1.2
H    -1.1    1.4    0.6
H    -1.3    0.2    3.2
C    -0.8    2.4    3.5
C     0.3    1.9    4.4
C    -0.2    1.4    5.8
N    -1.3    0.4    5.7
C    -1.0   -0.9    5.7
N     0.1   -1.4    5.0
N    -1.9   -1.7    6.4
H    -1.6    2.8    4.0
H    -0.5    3.1    2.8
H     0.9    2.8    4.6
H     1.0    1.2    3.9
H    -0.6    2.3    6.3
H     0.7    1.0    6.3
H    -2.0    0.6    6.4
H     0.2   -2.4    5.0
H     0.3   -0.9    4.1
H    -1.7   -2.7    6.2
N    -3.7    1.1    3.3
C    -5.2    1.3    3.2
H    -3.3    0.7    4.1
H    -5.5    2.0    3.9
H    -5.7    0.3    3.4
H    -5.4    1.6    2.2
