          35
 sphere cut out from bulk 
C     0.7    0.5    2.8
C    -0.4   -0.6    2.4
O    -0.2   -1.8    2.5
H     1.6   -0.1    3.1
H     0.3    1.2    3.5
H     0.9    1.1    1.9
N    -1.6   -0.1    2.1
C    -2.1    1.3    1.9
C    -2.5    2.1    3.2
O    -2.6    3.3    3.2
H    -2.3   -0.8    1.8
H    -1.2    1.9    1.5
C    -3.2    1.4    0.9
C    -2.8    1.1   -0.5
C    -3.9    0.7   -1.4
N    -4.5   -0.6   -1.1
C    -5.8   -0.7   -0.6
N    -6.3   -2.0   -0.5
N    -6.5    0.4   -0.3
H    -3.6    2.4    0.9
H    -4.0    0.7    1.2
H    -2.0    0.2   -0.5
H    -2.2    1.9   -1.0
H    -3.6    0.6   -2.5
H    -4.7    1.4   -1.4
H    -4.3   -1.4   -1.6
H    -7.2   -2.1    0.0
H    -5.6   -2.7   -0.2
H    -7.4    0.2    0.1
N    -2.7    1.3    4.3
C    -3.1    1.8    5.6
H    -2.5    0.3    4.2
H    -4.0    1.4    5.9
H    -3.2    2.9    5.5
H    -2.3    1.6    6.3
