          35
 sphere cut out from bulk 
C    -1.9    0.3   -0.6
C    -1.5    0.0    0.8
O    -0.6   -0.7    1.1
H    -1.1    0.8   -1.1
H    -2.9    0.9   -0.7
H    -2.1   -0.7   -1.1
N    -2.3    0.6    1.8
C    -2.0    0.5    3.2
C    -1.9   -0.9    3.8
O    -1.1   -1.2    4.7
H    -3.0    1.2    1.5
H    -1.0    0.9    3.4
C    -3.0    1.4    4.0
C    -2.7    1.4    5.5
C    -3.6    2.5    6.2
N    -3.4    2.5    7.7
C    -4.2    3.1    8.5
N    -3.9    3.1    9.8
N    -5.3    3.7    8.0
H    -4.0    1.1    3.8
H    -2.9    2.4    3.6
H    -1.7    1.7    5.7
H    -2.9    0.5    6.0
H    -4.7    2.2    6.1
H    -3.5    3.5    5.8
H    -2.4    2.4    7.9
H    -4.2    3.9   10.4
H    -3.0    2.8   10.1
H    -5.9    4.0    8.8
N    -2.9   -1.8    3.5
C    -4.0   -1.8    2.5
H    -2.7   -2.7    3.9
H    -4.7   -2.6    2.7
H    -3.6   -1.9    1.4
H    -4.5   -0.8    2.5
