          35
 sphere cut out from bulk 
C    -1.3    1.4    0.7
C    -0.5    0.9    2.0
O     0.2    1.7    2.6
H    -1.0    2.4    0.5
H    -2.4    1.4    0.9
H    -1.0    0.8   -0.1
N    -0.7   -0.4    2.4
C    -1.6   -1.4    1.8
C    -3.1   -1.2    2.0
O    -3.9   -1.7    1.2
H    -0.2   -0.6    3.2
H    -1.5   -1.3    0.7
C    -1.2   -2.8    2.1
C    -1.4   -3.2    3.6
C    -1.0   -4.6    3.9
N    -1.2   -4.9    5.3
C    -1.1   -6.2    5.8
N    -1.8   -7.2    5.0
N    -0.5   -6.5    6.9
H    -0.2   -3.0    1.8
H    -1.9   -3.5    1.6
H    -2.4   -3.0    4.0
H    -0.7   -2.5    4.2
H    -0.0   -4.8    3.5
H    -1.7   -5.3    3.3
H    -0.6   -4.3    5.9
H    -2.6   -6.9    4.6
H    -1.9   -8.1    5.5
H    -0.6   -7.4    7.2
N    -3.6   -0.4    3.0
C    -3.0    0.2    4.2
H    -4.7   -0.4    3.0
H    -3.8    0.4    4.9
H    -2.4    1.1    4.0
H    -2.3   -0.5    4.7
