          35
 sphere cut out from bulk 
C     0.1   -2.7   -0.5
C    -0.2   -1.9    0.7
O     0.2   -0.7    0.8
H    -0.4   -2.3   -1.4
H    -0.1   -3.8   -0.4
H     1.2   -2.6   -0.8
N    -1.0   -2.5    1.6
C    -1.6   -1.8    2.7
C    -1.1   -2.2    4.1
O    -1.7   -2.0    5.2
H    -1.4   -3.4    1.4
H    -1.2   -0.7    2.6
C    -3.1   -1.8    2.7
C    -3.8   -3.1    2.8
C    -5.0   -3.1    3.7
N    -4.7   -2.8    5.1
C    -5.6   -2.2    6.0
N    -5.0   -1.7    7.1
N    -6.9   -2.1    5.9
H    -3.4   -1.3    1.8
H    -3.5   -1.1    3.5
H    -3.1   -3.9    3.3
H    -4.1   -3.5    1.9
H    -5.6   -4.1    3.7
H    -5.8   -2.4    3.3
H    -3.7   -2.6    5.2
H    -4.0   -1.2    7.0
H    -5.6   -1.1    7.7
H    -7.2   -2.6    5.0
N     0.1   -2.9    4.1
C     0.8   -3.3    5.3
H     0.6   -3.0    3.2
H     1.1   -4.4    5.3
H     0.1   -3.2    6.2
H     1.7   -2.7    5.5
