          35
 sphere cut out from bulk 
C    -0.5   -0.0   -1.1
C     0.2    0.2    0.2
O     1.4    0.3    0.3
H    -1.2    0.8   -1.3
H    -1.0   -1.0   -1.1
H     0.2   -0.0   -1.9
N    -0.6    0.3    1.4
C    -2.0    0.1    1.5
C    -2.4    0.9    2.7
O    -1.7    1.1    3.7
H    -0.1    0.5    2.2
H    -2.5    0.5    0.6
C    -2.5   -1.4    1.6
C    -1.8   -2.1    2.8
C    -2.3   -3.6    2.9
N    -1.7   -4.3    4.0
C    -2.4   -4.6    5.2
N    -3.3   -3.6    5.5
N    -2.1   -5.6    6.0
H    -2.2   -1.9    0.7
H    -3.5   -1.4    1.7
H    -2.0   -1.6    3.7
H    -0.7   -2.1    2.7
H    -2.1   -4.1    1.9
H    -3.4   -3.6    3.0
H    -1.1   -5.0    3.7
H    -3.6   -3.8    6.5
H    -3.0   -2.7    5.4
H    -1.5   -6.3    5.5
N    -3.7    1.3    2.8
C    -4.7    1.3    1.7
H    -4.0    1.8    3.6
H    -5.6    1.8    2.1
H    -5.0    0.3    1.4
H    -4.4    1.9    0.8
