          35
 sphere cut out from bulk 
C    -6.0    1.9    3.1
C    -4.5    1.8    2.6
O    -4.1    2.4    1.6
H    -6.5    2.7    2.5
H    -6.0    2.2    4.1
H    -6.5    1.0    3.0
N    -3.6    1.1    3.4
C    -4.0    0.2    4.5
C    -2.8    0.1    5.5
O    -2.6   -0.9    6.1
H    -2.7    1.0    3.0
H    -4.8    0.6    5.0
C    -4.5   -1.2    4.0
C    -3.7   -1.9    2.9
C    -2.3   -2.5    3.1
N    -1.3   -1.5    3.2
C    -1.0   -0.6    2.2
N    -0.9   -1.1    1.0
N    -0.8    0.7    2.6
H    -5.5   -1.1    3.7
H    -4.5   -1.9    4.9
H    -3.7   -1.2    2.0
H    -4.4   -2.8    2.5
H    -2.1   -3.2    2.3
H    -2.3   -3.1    4.1
H    -1.2   -1.1    4.2
H    -1.1   -0.4    0.2
H    -1.2   -2.0    0.8
H    -0.4    1.2    1.8
N    -2.1    1.3    5.6
C    -0.9    1.3    6.4
H    -2.3    2.0    4.9
H    -0.9    2.3    7.0
H    -0.0    1.3    5.8
H    -0.9    0.5    7.1
