          35
 sphere cut out from bulk 
C     0.1    0.0    0.9
C    -0.4   -0.1    2.4
O     0.4   -0.0    3.3
H     1.0    0.6    0.9
H    -0.7    0.4    0.2
H     0.4   -1.0    0.6
N    -1.8   -0.3    2.6
C    -3.0   -0.2    1.8
C    -2.8   -0.8    0.4
O    -3.0   -0.2   -0.7
H    -1.9   -0.3    3.6
H    -3.7   -0.9    2.3
C    -3.6    1.1    1.7
C    -2.8    2.3    1.3
C    -3.5    3.3    0.4
N    -3.9    2.7   -0.8
C    -4.9    3.3   -1.6
N    -5.3    2.4   -2.7
N    -5.5    4.4   -1.5
H    -4.0    1.4    2.8
H    -4.5    1.1    1.1
H    -1.9    2.0    0.6
H    -2.3    2.8    2.1
H    -2.9    4.2    0.3
H    -4.5    3.6    1.0
H    -3.7    1.7   -0.9
H    -5.8    2.9   -3.4
H    -4.5    1.9   -3.1
H    -5.3    4.9   -0.6
N    -2.4   -2.1    0.3
C    -2.1   -3.1    1.4
H    -2.3   -2.5   -0.7
H    -2.8   -3.0    2.2
H    -1.1   -3.0    1.8
H    -2.2   -4.1    1.0
