          35
 sphere cut out from bulk 
C     0.5   -0.3   -0.0
C     0.1   -0.5    1.4
O     0.8   -1.2    2.2
H     1.5    0.1   -0.1
H    -0.1    0.4   -0.6
H     0.5   -1.3   -0.5
N    -1.1    0.2    1.8
C    -1.8    0.1    3.1
C    -1.1    0.8    4.2
O    -1.7    1.6    4.9
H    -1.5    0.7    1.1
H    -2.7    0.7    2.9
C    -2.2   -1.4    3.4
C    -3.2   -2.0    2.5
C    -4.6   -1.3    2.5
N    -5.3   -1.2    3.8
C    -4.9   -0.2    4.7
N    -4.8    1.1    4.2
N    -4.7   -0.6    5.9
H    -2.6   -1.3    4.5
H    -1.3   -2.0    3.5
H    -3.4   -3.0    2.8
H    -2.8   -2.0    1.5
H    -5.3   -1.9    1.8
H    -4.5   -0.3    2.0
H    -5.4   -2.1    4.2
H    -4.4    1.8    4.8
H    -5.5    1.4    3.6
H    -4.6    0.2    6.5
N     0.2    0.4    4.5
C     1.0    0.9    5.6
H     0.6   -0.3    3.8
H     1.3    0.1    6.3
H     0.4    1.7    6.1
H     1.9    1.4    5.2
