          35
 sphere cut out from bulk 
C     0.3    0.0    0.4
C     0.0   -0.2    1.9
O     0.9   -0.6    2.7
H     0.8   -0.9   -0.0
H     1.0    0.8    0.3
H    -0.6    0.3   -0.2
N    -1.2    0.1    2.3
C    -1.7   -0.1    3.7
C    -3.2    0.0    3.6
O    -3.8    0.5    2.6
H    -2.0    0.4    1.6
H    -1.4   -1.1    4.0
C    -1.1    1.0    4.6
C    -1.2    2.4    4.2
C     0.0    3.0    3.5
N     1.2    3.0    4.3
C     2.5    2.8    3.9
N     2.6    1.8    2.9
N     3.4    3.5    4.4
H    -0.0    0.7    4.8
H    -1.6    0.8    5.6
H    -1.4    3.1    5.1
H    -2.1    2.6    3.5
H    -0.2    4.0    3.1
H     0.3    2.4    2.6
H     1.2    3.7    5.0
H     2.1    1.0    2.9
H     3.6    1.6    2.6
H     4.4    3.2    4.1
N    -3.9   -0.4    4.7
C    -5.3   -0.3    4.9
H    -3.3   -0.8    5.5
H    -5.6    0.4    5.7
H    -5.7   -1.3    5.1
H    -5.7    0.0    3.9
