          35
 sphere cut out from bulk 
C    -0.7   -1.2    0.2
C    -0.2   -0.4    1.4
O     1.0   -0.3    1.7
H    -1.2   -2.1    0.6
H     0.2   -1.4   -0.4
H    -1.4   -0.6   -0.4
N    -1.1    0.2    2.2
C    -2.5    0.7    1.8
C    -3.4   -0.4    1.4
O    -4.0   -0.5    0.3
H    -0.7    0.7    3.0
H    -2.9    1.1    2.8
C    -2.5    1.8    0.8
C    -2.0    3.2    1.3
C    -0.5    3.5    1.1
N     0.5    2.8    2.1
C     0.3    2.8    3.4
N    -0.3    3.9    4.0
N     0.8    1.9    4.2
H    -3.5    1.9    0.4
H    -1.9    1.5   -0.1
H    -2.3    3.4    2.3
H    -2.5    4.0    0.7
H    -0.3    4.6    1.3
H    -0.1    3.3    0.1
H     0.9    2.0    1.7
H    -0.2    4.0    5.0
H    -0.2    4.8    3.5
H     1.2    1.1    3.7
N    -3.6   -1.4    2.3
C    -3.1   -1.6    3.7
H    -4.2   -2.2    2.0
H    -3.1   -0.6    4.2
H    -2.0   -1.9    3.7
H    -3.7   -2.3    4.2
