          35
 sphere cut out from bulk 
C    -1.1    0.2   -0.8
C    -0.7    0.1    0.7
O     0.4    0.5    1.2
H    -2.1    0.1   -0.9
H    -0.5   -0.6   -1.3
H    -0.7    1.2   -1.1
N    -1.6   -0.5    1.5
C    -1.5   -0.6    3.0
C    -1.1    0.8    3.5
O    -1.9    1.8    3.4
H    -2.5   -0.8    1.1
H    -2.6   -0.6    3.3
C    -0.9   -1.9    3.5
C     0.2   -2.5    2.7
C    -0.1   -3.9    2.1
N    -1.3   -3.9    1.2
C    -1.2   -3.4   -0.1
N    -2.5   -3.2   -0.6
N    -0.2   -3.1   -0.8
H    -1.7   -2.6    3.6
H    -0.6   -1.7    4.5
H     1.1   -2.7    3.3
H     0.6   -1.8    1.9
H    -0.4   -4.6    2.9
H     0.7   -4.3    1.6
H    -2.2   -3.7    1.7
H    -2.4   -3.0   -1.6
H    -3.2   -3.9   -0.5
H     0.7   -3.2   -0.2
N     0.1    1.0    4.3
C     1.3    0.3    4.2
H     0.1    2.0    4.6
H     1.5    0.0    3.1
H     1.4   -0.6    4.8
H     2.1    1.0    4.5
