          35
 sphere cut out from bulk 
C    -0.1   -0.0    0.3
C    -0.1   -0.2    1.8
O     0.9   -0.3    2.4
H    -1.1    0.2   -0.2
H     0.7    0.7    0.0
H     0.2   -1.0   -0.1
N    -1.3   -0.2    2.5
C    -2.7    0.2    2.0
C    -3.2   -0.6    0.8
O    -4.0   -0.1   -0.0
H    -1.2   -0.2    3.5
H    -3.3   -0.2    2.9
C    -3.0    1.7    2.0
C    -2.2    2.5    1.0
C    -2.7    4.0    1.0
N    -2.6    4.7    2.2
C    -1.3    5.2    2.7
N    -1.4    5.7    4.0
N    -0.2    5.2    2.1
H    -2.9    2.1    3.0
H    -4.1    1.8    1.8
H    -2.3    2.1   -0.0
H    -1.1    2.5    1.2
H    -3.8    4.0    0.7
H    -2.1    4.5    0.2
H    -3.2    4.5    2.9
H    -0.6    6.2    4.2
H    -2.2    6.3    4.1
H    -0.2    4.7    1.2
N    -2.8   -1.9    0.7
C    -3.1   -2.8   -0.4
H    -2.1   -2.2    1.4
H    -3.5   -3.7    0.0
H    -2.3   -3.0   -1.0
H    -3.9   -2.3   -0.9
