          35
 sphere cut out from bulk 
C     0.7    0.5    0.4
C     0.2   -0.3    1.6
O     0.9   -1.3    2.1
H     1.6    1.0    0.6
H    -0.1    1.2    0.0
H     0.9   -0.2   -0.4
N    -0.9    0.1    2.2
C    -1.5   -0.5    3.4
C    -1.7   -2.0    3.4
O    -1.5   -2.6    4.4
H    -1.4    0.9    1.8
H    -0.7   -0.3    4.2
C    -2.8    0.3    3.8
C    -3.3   -0.1    5.2
C    -4.6    0.7    5.5
N    -5.1    0.3    6.8
C    -6.1    1.0    7.4
N    -6.6    0.5    8.6
N    -6.6    2.1    6.8
H    -3.5    0.1    3.0
H    -2.6    1.4    3.7
H    -2.6    0.1    5.9
H    -3.5   -1.2    5.2
H    -5.4    0.4    4.7
H    -4.5    1.8    5.4
H    -5.1   -0.7    7.0
H    -7.2    1.1    9.1
H    -5.8    0.1    9.2
H    -7.3    2.6    7.4
N    -2.3   -2.6    2.3
C    -2.6   -2.1    1.0
H    -2.3   -3.6    2.4
H    -3.2   -2.8    0.5
H    -1.7   -2.0    0.3
H    -3.1   -1.2    1.0
