          35
 sphere cut out from bulk 
C     0.1   -0.8    0.3
C     0.0    0.1    1.6
O     1.0    0.5    2.1
H     1.1   -1.1    0.2
H    -0.3   -0.2   -0.5
H    -0.6   -1.7    0.4
N    -1.2    0.3    2.2
C    -2.6   -0.1    1.9
C    -3.0   -1.5    2.3
O    -4.2   -1.9    2.1
H    -1.1    0.9    3.0
H    -3.2    0.6    2.5
C    -3.0    0.3    0.4
C    -3.2   -0.8   -0.6
C    -3.4   -0.3   -2.1
N    -4.5    0.6   -2.3
C    -4.3    1.9   -2.4
N    -5.5    2.6   -2.5
N    -3.1    2.5   -2.3
H    -2.3    1.0    0.0
H    -4.0    0.9    0.5
H    -4.2   -1.4   -0.3
H    -2.4   -1.6   -0.6
H    -3.5   -1.2   -2.7
H    -2.5    0.2   -2.4
H    -5.4    0.3   -2.0
H    -5.4    3.6   -2.7
H    -6.2    2.2   -3.1
H    -3.1    3.5   -2.4
N    -2.1   -2.3    2.9
C    -2.4   -3.6    3.4
H    -1.2   -1.8    3.0
H    -1.6   -4.3    3.0
H    -3.4   -3.9    3.0
H    -2.3   -3.6    4.5
