          35
 sphere cut out from bulk 
C    -0.3   -1.6    0.5
C     0.1   -0.6    1.5
O     1.2   -0.6    2.1
H     0.6   -2.2    0.3
H    -0.6   -1.2   -0.4
H    -1.1   -2.3    0.9
N    -0.8    0.4    1.8
C    -2.2    0.4    1.4
C    -2.5    1.6    0.4
O    -1.8    2.6    0.4
H    -0.5    1.1    2.5
H    -2.5   -0.5    0.9
C    -3.2    0.5    2.6
C    -3.0    1.8    3.5
C    -2.6    1.5    5.0
N    -1.6    0.6    5.2
C    -0.2    0.9    4.8
N     0.7   -0.1    5.0
N     0.0    2.0    4.3
H    -3.1   -0.4    3.2
H    -4.2    0.5    2.2
H    -3.9    2.4    3.5
H    -2.2    2.4    3.1
H    -3.5    1.1    5.5
H    -2.4    2.5    5.4
H    -1.8   -0.4    5.3
H     0.3   -1.0    5.4
H     1.3   -0.3    4.2
H     1.0    2.1    4.1
N    -3.5    1.3   -0.5
C    -3.9    2.3   -1.5
H    -3.9    0.4   -0.5
H    -3.8    1.9   -2.5
H    -3.2    3.2   -1.4
H    -4.9    2.6   -1.3
