          35
 sphere cut out from bulk 
C    -0.2   -1.6   -0.4
C    -0.1   -0.9    0.9
O     0.8   -1.0    1.7
H    -0.6   -2.6   -0.2
H     0.8   -1.7   -0.8
H    -0.8   -1.1   -1.1
N    -1.2   -0.1    1.3
C    -2.2    0.5    0.5
C    -3.2   -0.5   -0.2
O    -3.8   -0.3   -1.2
H    -1.0    0.5    2.2
H    -2.9    1.1    1.2
C    -1.7    1.6   -0.5
C    -1.3    2.9    0.1
C     0.1    2.9    0.8
N     0.2    3.7    2.0
C    -0.3    3.3    3.2
N    -0.2    4.3    4.2
N    -0.9    2.1    3.3
H    -2.6    1.8   -1.2
H    -0.9    1.2   -1.1
H    -2.0    3.1    0.9
H    -1.3    3.7   -0.6
H     0.9    3.2    0.1
H     0.4    1.8    1.1
H     0.2    4.7    1.8
H    -0.4    4.0    5.1
H     0.7    4.8    4.2
H    -1.1    1.9    4.3
N    -3.4   -1.6    0.6
C    -4.2   -2.7    0.2
H    -2.8   -1.7    1.4
H    -5.0   -3.0    1.0
H    -3.7   -3.6   -0.0
H    -4.8   -2.4   -0.7
