          35
 sphere cut out from bulk 
C    -1.8   -0.3    0.2
C    -1.2    0.9    1.0
O    -0.0    1.2    0.9
H    -2.9   -0.3    0.2
H    -1.4   -1.2    0.6
H    -1.4   -0.2   -0.9
N    -2.0    1.5    1.9
C    -1.6    2.4    2.9
C    -1.1    3.8    2.4
O    -0.4    4.5    3.0
H    -2.9    1.0    2.0
H    -2.5    2.6    3.5
C    -0.5    1.8    3.9
C    -0.5    2.4    5.3
C     0.5    1.7    6.2
N     0.3    0.2    6.4
C     1.1   -0.8    6.0
N     2.0   -0.5    5.0
N     1.1   -2.0    6.5
H     0.5    1.9    3.4
H    -0.7    0.7    3.9
H    -1.5    2.2    5.7
H    -0.3    3.4    5.2
H     0.5    2.2    7.2
H     1.5    1.8    5.8
H    -0.3    0.0    7.2
H     1.6    0.1    4.2
H     2.5   -1.3    4.7
H     0.6   -2.0    7.3
N    -1.7    4.1    1.1
C    -1.3    5.3    0.5
H    -2.1    3.4    0.7
H    -2.2    5.8    0.0
H    -0.6    5.2   -0.3
H    -0.9    6.0    1.2
