          35
 sphere cut out from bulk 
C     0.2   -0.5    1.0
C    -0.1   -0.4    2.5
O     0.8   -0.5    3.3
H     1.3   -0.7    0.9
H    -0.1    0.4    0.4
H    -0.3   -1.4    0.6
N    -1.3   -0.0    2.9
C    -2.5    0.1    2.1
C    -3.2    1.4    2.5
O    -4.2    1.4    3.4
H    -1.4    0.0    3.9
H    -2.2    0.2    1.0
C    -3.5   -1.1    2.2
C    -2.9   -2.4    1.7
C    -3.9   -3.5    1.9
N    -3.3   -4.8    1.4
C    -4.1   -6.0    1.4
N    -3.3   -7.1    1.1
N    -5.3   -6.1    1.5
H    -4.4   -0.8    1.6
H    -3.8   -1.1    3.2
H    -2.0   -2.6    2.3
H    -2.6   -2.3    0.7
H    -4.8   -3.4    1.3
H    -4.2   -3.6    2.9
H    -2.4   -5.0    1.8
H    -3.9   -7.9    0.9
H    -2.6   -6.9    0.3
H    -5.8   -5.2    1.9
N    -2.8    2.6    2.0
C    -1.6    2.8    1.1
H    -3.2    3.4    2.4
H    -0.7    2.6    1.6
H    -1.6    3.9    0.9
H    -1.7    2.2    0.2
