          35
 sphere cut out from bulk 
C    -0.8   -1.5    0.6
C    -1.4   -1.2    1.9
O    -2.4   -1.9    2.3
H    -1.6   -1.5   -0.2
H    -0.3   -2.5    0.6
H    -0.1   -0.7    0.3
N    -0.8   -0.3    2.7
C    -1.3    0.0    4.1
C    -0.5    1.3    4.4
O     0.6    1.6    3.8
H    -0.1    0.2    2.4
H    -2.3    0.3    4.1
C    -1.0   -1.1    5.1
C     0.4   -1.7    5.0
C     0.4   -3.3    4.9
N    -0.2   -3.6    3.6
C    -0.1   -4.9    3.1
N    -0.9   -5.1    2.0
N     0.6   -5.9    3.5
H    -1.8   -1.9    4.8
H    -1.2   -0.8    6.1
H     0.9   -1.5    6.0
H     1.0   -1.3    4.2
H    -0.1   -3.7    5.8
H     1.4   -3.6    4.9
H    -1.0   -3.1    3.4
H    -1.1   -6.1    1.7
H    -1.8   -4.5    1.9
H     1.1   -5.7    4.4
N    -0.9    2.0    5.5
C    -2.1    1.9    6.3
H    -0.3    2.8    5.7
H    -1.9    1.2    7.2
H    -2.9    1.4    5.8
H    -2.4    2.8    6.7
