          35
 sphere cut out from bulk 
C     0.2   -0.8    0.3
C     0.3   -0.8    1.8
O     1.3   -1.1    2.5
H     0.5   -1.8   -0.1
H     0.9   -0.1   -0.1
H    -0.8   -0.6   -0.1
N    -0.9   -0.4    2.5
C    -1.0   -0.3    3.9
C    -0.6   -1.5    4.7
O    -0.0   -1.4    5.8
H    -1.7   -0.1    1.9
H    -0.2    0.4    4.2
C    -2.4    0.2    4.3
C    -2.6    0.5    5.8
C    -1.7    1.5    6.5
N    -1.9    1.7    7.9
C    -1.4    0.8    8.8
N    -0.4   -0.0    8.5
N    -2.0    0.8   10.0
H    -3.1   -0.4    3.9
H    -2.5    1.2    3.8
H    -3.7    0.8    5.9
H    -2.5   -0.5    6.3
H    -1.9    2.5    6.0
H    -0.7    1.3    6.3
H    -2.7    2.1    8.2
H    -0.2   -0.8    9.1
H    -0.2   -0.3    7.5
H    -1.6    0.2   10.7
N    -1.0   -2.8    4.4
C    -1.7   -3.2    3.2
H    -0.7   -3.5    5.0
H    -1.1   -3.3    2.3
H    -2.6   -2.5    2.9
H    -2.2   -4.2    3.4
