          35
 sphere cut out from bulk 
C    -0.3    2.3    0.3
C    -0.1    1.2    1.4
O     0.9    1.1    2.0
H     0.6    2.9    0.2
H    -1.2    2.9    0.6
H    -0.6    1.8   -0.7
N    -1.1    0.3    1.6
C    -2.4    0.1    0.8
C    -3.4   -0.2    1.9
O    -3.8   -1.4    2.1
H    -0.8   -0.5    2.2
H    -2.6    1.1    0.4
C    -2.2   -0.9   -0.3
C    -3.5   -1.0   -1.2
C    -4.3   -2.3   -1.0
N    -3.6   -3.5   -1.3
C    -3.0   -4.4   -0.4
N    -2.3   -5.4   -1.1
N    -2.9   -4.3    0.8
H    -2.0   -1.9    0.1
H    -1.4   -0.6   -0.9
H    -3.2   -1.0   -2.2
H    -4.2   -0.2   -1.0
H    -5.2   -2.3   -1.6
H    -4.7   -2.4    0.1
H    -3.3   -3.6   -2.3
H    -2.0   -6.1   -0.4
H    -2.9   -5.9   -1.8
H    -3.3   -3.4    1.2
N    -4.0    0.8    2.6
C    -3.6    2.2    2.5
H    -4.6    0.5    3.3
H    -4.2    2.8    3.2
H    -3.6    2.6    1.5
H    -2.5    2.4    2.9
