          35
 sphere cut out from bulk 
C     1.6   -2.6    4.7
C     0.5   -1.8    4.1
O     0.4   -1.8    2.9
H     2.6   -2.2    4.4
H     1.6   -3.6    4.4
H     1.6   -2.5    5.8
N    -0.3   -1.2    4.9
C    -1.5   -0.4    4.5
C    -1.0    1.1    4.1
O    -1.1    2.0    4.8
H    -0.1   -1.1    5.9
H    -1.8   -0.9    3.5
C    -2.6   -0.3    5.5
C    -3.9    0.3    5.1
C    -4.5   -0.2    3.8
N    -4.9   -1.6    4.0
C    -5.5   -2.3    2.9
N    -5.7   -3.7    3.2
N    -6.0   -1.9    1.8
H    -2.2    0.2    6.4
H    -2.8   -1.4    5.8
H    -3.7    1.4    4.9
H    -4.6    0.2    5.9
H    -3.8   -0.1    2.9
H    -5.4    0.3    3.6
H    -4.2   -2.2    4.5
H    -6.0   -3.9    4.2
H    -6.3   -4.1    2.5
H    -5.7   -0.9    1.7
N    -0.4    1.1    2.9
C     0.2    2.3    2.3
H    -0.2    0.2    2.4
H    -0.2    3.2    2.9
H    -0.0    2.4    1.3
H     1.3    2.3    2.4
