          35
 sphere cut out from bulk 
C     0.3    2.6    1.1
C     0.1    1.8    2.4
O     1.1    1.8    3.2
H     1.0    2.1    0.5
H     0.6    3.6    1.3
H    -0.7    2.6    0.5
N    -1.1    1.3    2.7
C    -1.5    0.4    3.8
C    -1.4    0.9    5.2
O    -2.1    0.4    6.1
H    -1.8    1.4    1.9
H    -2.6    0.4    3.7
C    -1.1   -1.1    3.6
C     0.4   -1.4    3.7
C     1.0   -1.3    5.1
N     2.4   -1.9    5.1
C     3.2   -1.8    6.2
N     2.6   -1.7    7.4
N     4.5   -1.8    6.0
H    -1.5   -1.4    2.6
H    -1.6   -1.6    4.3
H     1.0   -0.8    3.0
H     0.5   -2.5    3.4
H     0.4   -1.8    5.8
H     1.1   -0.2    5.4
H     2.9   -1.8    4.2
H     3.1   -1.9    8.2
H     1.6   -2.1    7.5
H     5.0   -1.8    6.8
N    -0.5    1.9    5.5
C    -0.2    2.3    6.9
H     0.3    2.0    4.8
H     0.3    3.3    6.8
H     0.5    1.6    7.4
H    -1.1    2.3    7.4
