          35
 sphere cut out from bulk 
C    -0.5   -0.8   -0.1
C    -0.4   -0.8    1.4
O     0.6   -1.2    2.0
H     0.3   -0.2   -0.5
H    -1.4   -0.3   -0.4
H    -0.5   -1.8   -0.4
N    -1.5   -0.2    2.1
C    -1.6   -0.3    3.6
C    -3.0   -0.2    4.0
O    -3.5   -1.1    4.7
H    -2.3   -0.1    1.6
H    -1.3   -1.4    3.9
C    -0.6    0.7    4.3
C    -0.7    0.5    5.8
C     0.2    1.6    6.5
N    -0.3    3.0    6.4
C    -0.1    3.8    5.3
N     1.1    3.8    4.8
N    -1.1    4.5    4.9
H    -0.8    1.7    4.0
H     0.4    0.4    3.9
H    -0.3   -0.5    6.1
H    -1.7    0.6    6.2
H     1.2    1.6    6.2
H     0.2    1.4    7.6
H    -1.3    3.1    6.7
H     1.8    3.1    5.1
H     1.2    4.0    3.8
H    -0.8    5.2    4.2
N    -3.7    1.0    3.7
C    -3.2    2.2    3.1
H    -4.6    0.9    4.1
H    -4.1    2.7    2.6
H    -2.5    2.1    2.4
H    -2.9    2.9    3.9
