          35
 sphere cut out from bulk 
C     1.0    0.6    0.8
C     0.4    0.5    2.1
O     1.0    0.9    3.1
H     2.1    0.3    0.8
H     1.0    1.6    0.4
H     0.5   -0.1    0.0
N    -0.8   -0.0    2.2
C    -1.8    0.0    3.3
C    -2.3    1.5    3.5
O    -1.6    2.5    3.1
H    -1.3   -0.2    1.3
H    -2.6   -0.6    3.0
C    -1.1   -0.6    4.5
C    -1.8   -0.5    5.9
C    -1.2    0.6    6.8
N    -1.5    2.0    6.3
C    -0.6    3.0    6.2
N     0.6    2.6    5.6
N    -1.0    4.2    6.5
H    -0.1   -0.3    4.6
H    -1.1   -1.7    4.3
H    -1.6   -1.4    6.5
H    -2.9   -0.4    5.9
H    -0.1    0.5    6.8
H    -1.5    0.5    7.8
H    -2.4    2.4    6.7
H     1.2    3.4    5.5
H     0.6    2.0    4.8
H    -0.3    4.9    6.2
N    -3.6    1.6    3.9
C    -4.7    0.6    3.9
H    -3.9    2.6    3.9
H    -5.5    1.0    4.5
H    -4.4   -0.3    4.5
H    -5.0    0.3    2.9
