          35
 sphere cut out from bulk 
C    -0.3   -0.5   -0.2
C    -0.1   -0.0    1.3
O     1.0    0.1    1.8
H     0.7   -0.5   -0.6
H    -0.9    0.2   -0.7
H    -0.7   -1.4   -0.2
N    -1.2    0.2    2.0
C    -2.6   -0.1    1.7
C    -3.4    1.2    2.2
O    -3.9    1.2    3.3
H    -1.0    0.4    3.0
H    -2.7   -0.1    0.6
C    -3.2   -1.4    2.3
C    -2.5   -2.6    1.8
C    -3.1   -3.9    2.4
N    -2.5   -5.1    2.0
C    -2.8   -5.7    0.8
N    -2.0   -6.8    0.5
N    -3.6   -5.1    0.0
H    -4.2   -1.4    2.0
H    -3.1   -1.3    3.4
H    -1.4   -2.6    2.1
H    -2.6   -2.7    0.7
H    -4.2   -4.0    2.2
H    -3.0   -3.8    3.5
H    -1.5   -5.3    2.3
H    -2.3   -7.3   -0.3
H    -1.8   -7.4    1.3
H    -3.8   -5.7   -0.8
N    -3.5    2.2    1.4
C    -2.8    2.5    0.1
H    -3.9    3.0    1.8
H    -1.7    2.5    0.2
H    -3.1    3.4   -0.3
H    -3.1    1.7   -0.6
