          35
 sphere cut out from bulk 
C    -0.6   -1.0   -0.2
C     0.6   -0.3    0.4
O     1.5    0.2   -0.3
H    -0.2   -1.9   -0.7
H    -1.1   -0.3   -0.9
H    -1.3   -1.3    0.6
N     0.6   -0.1    1.8
C     1.7    0.5    2.5
C     1.6   -0.1    3.9
O     0.7   -0.7    4.3
H    -0.1   -0.6    2.4
H     2.6    0.1    2.0
C     1.7    2.0    2.5
C     0.5    2.6    3.2
C     0.5    4.2    3.0
N    -0.6    4.8    3.8
C    -0.6    4.9    5.2
N     0.7    5.1    5.7
N    -1.6    4.8    6.0
H     1.7    2.3    1.4
H     2.6    2.4    2.9
H     0.6    2.4    4.3
H    -0.4    2.2    2.9
H     0.3    4.4    2.0
H     1.4    4.6    3.3
H    -1.5    4.6    3.5
H     0.7    5.3    6.7
H     1.3    5.7    5.2
H    -2.4    4.5    5.5
N     2.7    0.2    4.7
C     2.8   -0.2    6.1
H     3.5    0.7    4.3
H     3.7   -0.8    6.3
H     1.9   -0.8    6.4
H     2.8    0.7    6.8
