          35
 sphere cut out from bulk 
C    -1.5    1.0    1.0
C    -0.6    0.7    2.1
O    -0.1    1.6    2.9
H    -1.5    2.1    0.9
H    -2.5    0.7    1.1
H    -1.1    0.6    0.0
N    -0.4   -0.6    2.4
C    -1.0   -1.8    1.7
C    -2.4   -2.1    2.1
O    -3.1   -2.8    1.3
H     0.2   -0.8    3.2
H    -1.0   -1.6    0.7
C    -0.1   -3.0    1.9
C     0.1   -3.6    3.3
C    -0.4   -5.0    3.5
N    -1.9   -5.1    3.2
C    -2.8   -4.8    4.2
N    -4.1   -4.8    3.7
N    -2.5   -4.5    5.4
H     0.9   -2.8    1.4
H    -0.5   -3.8    1.2
H    -0.3   -2.9    4.0
H     1.2   -3.6    3.6
H    -0.3   -5.3    4.5
H     0.1   -5.7    2.9
H    -2.1   -5.1    2.3
H    -4.8   -4.4    4.3
H    -4.2   -4.5    2.7
H    -3.3   -4.3    6.0
N    -3.0   -1.6    3.2
C    -2.5   -1.0    4.4
H    -4.0   -1.9    3.2
H    -1.8   -1.6    4.9
H    -3.4   -0.8    5.1
H    -2.0   -0.0    4.2
