          35
 sphere cut out from bulk 
C    -2.1    1.4    0.3
C    -0.9    1.1    1.1
O     0.1    1.8    1.1
H    -2.4    0.6   -0.4
H    -2.0    2.4   -0.2
H    -3.0    1.5    1.0
N    -0.9   -0.2    1.7
C    -2.0   -1.1    1.9
C    -3.1   -0.8    2.9
O    -4.2   -1.2    2.6
H     0.0   -0.4    2.2
H    -2.5   -1.1    0.9
C    -1.4   -2.5    2.1
C    -0.9   -3.2    0.8
C    -2.0   -3.6   -0.2
N    -2.6   -2.4   -1.0
C    -3.9   -2.2   -1.2
N    -4.8   -2.5   -0.1
N    -4.5   -1.7   -2.3
H    -2.2   -3.1    2.5
H    -0.6   -2.5    2.8
H    -0.4   -4.2    1.0
H    -0.2   -2.6    0.3
H    -2.9   -4.0    0.3
H    -1.7   -4.3   -0.9
H    -2.0   -2.1   -1.8
H    -5.7   -2.3   -0.3
H    -4.5   -2.2    0.8
H    -3.8   -1.6   -3.0
N    -2.8   -0.1    4.0
C    -1.6    0.4    4.6
H    -3.7    0.0    4.6
H    -0.8   -0.4    4.6
H    -1.8    0.7    5.6
H    -1.2    1.2    4.0
