          35
 sphere cut out from bulk 
C     0.2   -1.6    0.8
C    -0.1   -0.4    1.7
O     0.7    0.1    2.4
H     0.9   -1.3    0.1
H    -0.7   -2.0    0.3
H     0.7   -2.4    1.4
N    -1.4    0.1    1.6
C    -1.9    1.3    2.3
C    -1.7    1.3    3.8
O    -1.4    2.3    4.3
H    -2.1   -0.4    0.9
H    -1.3    2.1    1.9
C    -3.4    1.5    1.9
C    -3.9    2.9    2.4
C    -5.4    3.0    2.0
N    -5.9    4.3    2.5
C    -7.2    4.7    2.2
N    -7.5    5.9    2.9
N    -8.1    4.2    1.5
H    -4.0    0.7    2.3
H    -3.4    1.5    0.8
H    -3.3    3.7    2.0
H    -3.8    2.9    3.5
H    -6.0    2.2    2.4
H    -5.5    3.0    0.9
H    -5.5    4.6    3.4
H    -8.4    6.3    2.5
H    -6.8    6.6    2.9
H    -7.7    3.2    1.1
N    -2.0    0.1    4.5
C    -2.3   -1.2    4.1
H    -1.8    0.3    5.5
H    -3.1   -1.2    3.4
H    -2.7   -1.7    5.0
H    -1.4   -1.8    3.8
