          35
 sphere cut out from bulk 
C     0.7    0.4    0.8
C     0.3    1.0    2.1
O     1.1    1.3    3.0
H     1.8    0.2    0.8
H     0.5    1.1   -0.0
H     0.2   -0.5    0.6
N    -1.0    1.3    2.3
C    -2.1    0.7    1.6
C    -2.3    1.4    0.2
O    -2.3    2.6   -0.0
H    -1.2    1.7    3.2
H    -1.9   -0.4    1.4
C    -3.4    0.9    2.4
C    -3.5    0.3    3.8
C    -3.0   -1.2    3.9
N    -1.6   -1.4    4.0
C    -0.8   -2.0    3.1
N     0.6   -2.0    3.4
N    -1.4   -2.6    2.0
H    -4.2    0.4    1.8
H    -3.7    1.9    2.4
H    -4.5    0.3    4.1
H    -2.9    0.9    4.5
H    -3.3   -1.8    3.1
H    -3.5   -1.6    4.8
H    -1.1   -1.1    4.8
H     1.1   -2.4    2.7
H     0.9   -1.2    3.7
H    -0.7   -3.0    1.4
N    -2.6    0.4   -0.8
C    -2.9    0.8   -2.2
H    -2.6   -0.6   -0.5
H    -2.9    1.9   -2.2
H    -2.2    0.4   -2.9
H    -3.9    0.5   -2.5
