          35
 sphere cut out from bulk 
C     0.3   -0.2    0.7
C     0.1   -0.3    2.2
O     1.1   -0.4    2.9
H     1.4   -0.4    0.4
H     0.0    0.8    0.2
H    -0.3   -1.0    0.1
N    -1.1   -0.1    2.6
C    -2.4    0.0    1.9
C    -3.3    1.0    2.6
O    -4.4    0.7    3.0
H    -1.2   -0.2    3.7
H    -2.1    0.5    0.9
C    -3.1   -1.3    1.6
C    -3.3   -2.2    2.9
C    -4.2   -3.4    2.6
N    -4.4   -4.3    3.7
C    -3.4   -5.3    4.0
N    -3.7   -6.0    5.2
N    -2.3   -5.6    3.3
H    -2.6   -1.9    0.9
H    -4.1   -1.1    1.2
H    -3.8   -1.6    3.7
H    -2.3   -2.6    3.2
H    -3.8   -4.0    1.7
H    -5.2   -3.1    2.3
H    -4.9   -4.0    4.5
H    -3.0   -6.8    5.3
H    -4.7   -6.3    5.2
H    -2.1   -4.9    2.5
N    -2.8    2.3    2.8
C    -1.6    2.9    2.3
H    -3.5    2.9    3.3
H    -1.6    4.0    2.3
H    -1.4    2.6    1.3
H    -0.7    2.6    2.9
