          35
 sphere cut out from bulk 
C     0.3    0.1    0.1
C     0.1    0.5    1.5
O     0.9    1.2    2.1
H     1.2   -0.4   -0.1
H     0.4    1.1   -0.5
H    -0.5   -0.4   -0.4
N    -1.1    0.0    2.1
C    -1.5    0.0    3.5
C    -2.6    1.1    3.8
O    -3.5    0.7    4.6
H    -1.6   -0.5    1.5
H    -2.0   -0.9    3.6
C    -0.4    0.0    4.6
C     0.1    1.4    5.1
C    -0.6    2.0    6.3
N    -0.5    1.1    7.5
C    -1.2    1.4    8.6
N    -0.8    0.6    9.7
N    -2.2    2.3    8.8
H     0.4   -0.6    4.2
H    -0.8   -0.5    5.4
H     0.2    2.1    4.3
H     1.2    1.2    5.4
H    -1.7    2.0    6.0
H    -0.3    3.0    6.4
H     0.5    0.8    7.6
H    -0.7   -0.4    9.4
H    -1.5    0.7   10.5
H    -2.3    2.9    8.0
N    -2.7    2.3    3.2
C    -1.8    3.0    2.3
H    -3.5    2.8    3.5
H    -1.9    4.0    2.5
H    -2.0    2.8    1.3
H    -0.8    2.7    2.5
