          35
 sphere cut out from bulk 
C     0.9   -2.7    0.3
C     1.5   -1.6    1.2
O     2.5   -1.7    1.8
H    -0.1   -2.5   -0.0
H     1.0   -3.6    0.8
H     1.5   -2.8   -0.6
N     0.7   -0.4    1.3
C     1.2    0.8    1.9
C     1.2    0.7    3.5
O     2.0    1.4    4.1
H    -0.1   -0.3    0.7
H     2.2    0.9    1.7
C     0.3    2.0    1.4
C     0.6    3.3    2.1
C    -0.4    3.6    3.3
N    -0.1    4.7    4.1
C     0.3    4.7    5.4
N     0.7    3.5    5.9
N     0.3    5.8    6.2
H    -0.7    1.7    1.5
H     0.6    2.1    0.3
H     0.5    4.1    1.4
H     1.6    3.4    2.5
H    -0.5    2.7    4.0
H    -1.4    3.7    2.9
H    -0.4    5.6    3.8
H     1.1    3.6    6.8
H     1.3    2.9    5.3
H    -0.1    6.6    5.8
N     0.3   -0.1    4.0
C     0.2   -0.3    5.5
H    -0.2   -0.8    3.4
H    -0.0    0.6    6.0
H     1.1   -0.7    5.9
H    -0.7   -1.0    5.7
