          35
 sphere cut out from bulk 
C     0.5   -1.4    0.4
C    -0.1   -0.9    1.7
O    -0.5   -1.7    2.6
H     0.7   -0.6   -0.3
H    -0.1   -2.1   -0.0
H     1.5   -1.8    0.7
N    -0.3    0.4    1.8
C    -0.8    1.0    3.1
C    -2.3    0.8    3.4
O    -2.7    0.5    4.5
H     0.1    1.1    1.1
H    -0.3    0.5    3.9
C    -0.4    2.5    3.1
C    -0.9    3.3    4.3
C    -0.2    3.0    5.7
N    -0.5    1.7    6.2
C     0.4    0.7    6.1
N    -0.2   -0.6    6.3
N     1.6    0.9    5.9
H    -0.8    3.0    2.2
H     0.7    2.5    3.1
H    -2.0    3.2    4.4
H    -0.7    4.4    4.1
H    -0.5    3.8    6.4
H     0.9    3.1    5.6
H    -1.5    1.4    6.1
H     0.4   -1.4    6.0
H    -1.2   -0.7    6.0
H     2.2    0.0    5.9
N    -3.2    0.9    2.4
C    -3.0    1.3    0.9
H    -4.2    0.7    2.7
H    -4.0    1.6    0.5
H    -2.7    0.4    0.3
H    -2.4    2.1    0.8
