          35
 sphere cut out from bulk 
C    -1.6    2.3   -0.3
C    -0.7    1.8    0.8
O     0.3    2.5    1.2
H    -1.2    3.2   -0.7
H    -2.6    2.5    0.1
H    -1.7    1.5   -1.1
N    -1.0    0.6    1.5
C    -2.2   -0.2    1.2
C    -3.5    0.3    1.7
O    -4.6   -0.1    1.2
H    -0.4    0.4    2.2
H    -2.3   -0.3    0.2
C    -1.9   -1.6    1.8
C    -1.9   -1.8    3.3
C    -1.7   -3.2    3.8
N    -0.4   -3.8    3.3
C    -0.0   -5.1    3.5
N    -1.1   -6.0    3.5
N     1.2   -5.3    3.5
H    -1.1   -2.0    1.3
H    -2.8   -2.2    1.4
H    -2.8   -1.4    3.8
H    -1.0   -1.2    3.7
H    -2.5   -3.8    3.4
H    -1.8   -3.2    4.9
H     0.4   -3.1    3.4
H    -0.8   -6.9    3.8
H    -2.0   -5.7    3.8
H     1.4   -6.3    3.5
N    -3.6    1.3    2.7
C    -2.6    1.9    3.6
H    -4.6    1.5    2.9
H    -2.0    1.1    4.1
H    -3.2    2.4    4.4
H    -2.0    2.6    3.1
