          35
 sphere cut out from bulk 
C    -2.0   -2.8    1.0
C    -1.5   -1.8    2.1
O    -0.3   -1.7    2.3
H    -1.6   -3.8    1.1
H    -1.6   -2.4    0.0
H    -3.1   -2.8    0.9
N    -2.5   -1.2    2.8
C    -2.2   -0.2    3.8
C    -1.9   -0.9    5.2
O    -2.7   -1.0    6.1
H    -3.5   -1.4    2.6
H    -1.3    0.3    3.5
C    -3.3    0.8    4.0
C    -3.0    2.0    4.9
C    -4.2    2.5    5.7
N    -4.7    1.5    6.6
C    -5.8    0.7    6.3
N    -5.7   -0.5    6.9
N    -6.8    1.0    5.6
H    -4.2    0.3    4.4
H    -3.6    1.2    3.0
H    -2.5    2.8    4.3
H    -2.2    1.7    5.6
H    -5.0    2.8    5.0
H    -3.9    3.4    6.2
H    -4.0    1.1    7.1
H    -6.5   -1.1    6.6
H    -4.8   -1.0    6.8
H    -6.8    2.0    5.4
N    -0.6   -1.5    5.2
C    -0.2   -2.4    6.3
H    -0.1   -1.5    4.3
H     0.9   -2.1    6.5
H    -0.3   -3.4    6.0
H    -0.8   -2.1    7.2
