          35
 sphere cut out from bulk 
C    -0.2   -0.9    2.8
C    -1.0   -0.9    4.1
O    -0.9   -1.9    4.9
H    -0.1    0.2    2.4
H    -0.8   -1.4    2.0
H     0.7   -1.4    2.9
N    -1.9    0.1    4.4
C    -2.6    0.9    3.4
C    -2.3    2.5    3.6
O    -2.9    3.3    2.9
H    -2.4   -0.1    5.3
H    -2.2    0.7    2.4
C    -4.1    0.7    3.5
C    -4.8    0.2    2.2
C    -4.1   -0.9    1.5
N    -3.7   -2.0    2.4
C    -2.9   -3.1    2.0
N    -2.6   -4.0    3.0
N    -2.4   -3.2    0.8
H    -4.6    1.6    3.8
H    -4.3   -0.0    4.3
H    -4.8    1.1    1.5
H    -5.8   -0.1    2.4
H    -3.1   -0.6    1.0
H    -4.7   -1.3    0.7
H    -4.4   -2.3    3.1
H    -1.9   -4.7    2.7
H    -2.3   -3.5    3.9
H    -2.8   -2.6    0.1
N    -1.2    2.8    4.4
C    -0.8    4.1    4.6
H    -0.8    2.0    4.9
H    -0.8    4.4    5.7
H    -1.4    4.8    4.0
H     0.3    4.2    4.3
