          35
 sphere cut out from bulk 
C    -0.1   -0.7    0.2
C    -0.6   -0.6    1.6
O    -0.0   -1.2    2.5
H    -0.9   -0.3   -0.6
H     0.1   -1.7   -0.1
H     0.8   -0.1    0.0
N    -1.6    0.3    1.9
C    -2.0    0.8    3.2
C    -0.7    1.1    4.0
O     0.1    1.9    3.5
H    -1.9    0.9    1.1
H    -2.4    1.8    3.1
C    -3.0   -0.1    3.9
C    -2.8   -1.6    4.0
C    -3.9   -2.4    4.6
N    -5.2   -2.3    3.8
C    -5.6   -3.3    2.9
N    -4.6   -4.2    2.5
N    -6.8   -3.5    2.5
H    -4.0   -0.0    3.3
H    -3.2    0.3    4.9
H    -1.9   -1.8    4.6
H    -2.5   -2.0    3.0
H    -4.2   -2.0    5.6
H    -3.7   -3.5    4.7
H    -5.9   -1.8    4.2
H    -5.0   -4.8    1.7
H    -3.7   -3.8    2.2
H    -7.5   -2.9    3.0
N    -0.6    0.6    5.2
C     0.7    0.9    6.0
H    -1.1   -0.2    5.5
H     0.4    0.7    7.1
H     1.0    1.9    5.8
H     1.5    0.2    5.8
