          35
 sphere cut out from bulk 
C    -0.8   -0.2    0.2
C    -0.5   -0.2    1.7
O     0.7   -0.1    2.1
H    -1.7   -0.8   -0.0
H     0.0   -0.7   -0.3
H    -0.9    0.8   -0.1
N    -1.6   -0.2    2.5
C    -1.4    0.2    4.0
C    -0.7    1.5    4.0
O    -1.2    2.4    3.4
H    -2.5    0.1    2.1
H    -2.5    0.5    4.2
C    -1.1   -1.0    4.9
C    -0.0   -2.0    4.6
C    -0.4   -3.1    3.6
N    -1.5   -3.9    4.0
C    -2.7   -4.1    3.2
N    -2.9   -3.2    2.2
N    -3.5   -5.1    3.4
H    -2.1   -1.6    4.9
H    -1.0   -0.6    5.9
H     0.3   -2.5    5.5
H     0.9   -1.5    4.2
H     0.5   -3.8    3.5
H    -0.5   -2.8    2.6
H    -1.4   -4.7    4.7
H    -3.8   -3.3    1.8
H    -2.6   -2.3    2.4
H    -3.2   -5.7    4.1
N     0.3    1.8    4.9
C     1.4    0.9    5.4
H     0.6    2.7    4.8
H     2.1    1.5    5.9
H     1.9    0.3    4.6
H     1.0    0.1    6.1
