          35
 sphere cut out from bulk 
C     0.4    1.1    0.5
C     0.1    0.1    1.6
O     0.8   -0.8    2.0
H    -0.1    2.0    0.6
H     0.2    0.6   -0.4
H     1.5    1.2    0.6
N    -1.2    0.2    2.2
C    -2.3    1.1    2.0
C    -2.6    1.4    0.5
O    -2.6    0.4   -0.3
H    -1.3   -0.6    2.9
H    -3.2    0.5    2.3
C    -2.3    2.3    3.0
C    -1.0    3.2    2.9
C    -1.1    4.4    3.9
N     0.1    5.2    4.0
C     1.1    4.8    4.7
N     2.2    5.6    4.7
N     1.0    3.7    5.5
H    -2.3    1.9    4.0
H    -3.2    2.9    2.9
H    -0.9    3.6    1.9
H    -0.1    2.7    3.1
H    -1.3    4.0    4.9
H    -2.0    5.1    3.6
H     0.3    5.8    3.2
H     3.1    5.2    4.9
H     2.3    6.3    3.9
H     1.8    3.6    6.1
N    -3.0    2.6    0.2
C    -3.3    3.0   -1.2
H    -3.0    3.4    0.9
H    -4.3    3.4   -1.2
H    -3.3    2.1   -1.8
H    -2.6    3.8   -1.6
