          35
 sphere cut out from bulk 
C     0.3    0.3    1.7
C     0.1    0.8    3.2
O     1.0    1.0    3.9
H     1.3   -0.3    1.7
H     0.5    1.2    1.1
H    -0.5   -0.2    1.3
N    -1.2    0.9    3.6
C    -2.5    0.8    2.9
C    -2.8   -0.6    2.3
O    -3.5   -0.8    1.4
H    -1.3    1.3    4.5
H    -3.2    1.0    3.6
C    -2.6    1.9    1.8
C    -4.0    2.2    1.2
C    -5.2    2.3    2.2
N    -5.7    1.0    2.7
C    -5.6    0.7    4.0
N    -6.0   -0.7    4.2
N    -5.2    1.5    4.9
H    -1.9    1.7    1.0
H    -2.2    2.8    2.3
H    -4.2    1.4    0.5
H    -3.9    3.1    0.7
H    -6.0    2.8    1.7
H    -4.9    2.9    3.1
H    -5.5    0.2    2.0
H    -6.2   -0.9    5.2
H    -6.8   -1.0    3.6
H    -5.3    1.1    5.9
N    -2.2   -1.6    3.1
C    -2.5   -3.0    2.8
H    -1.6   -1.4    3.8
H    -1.6   -3.6    2.7
H    -3.1   -3.1    1.9
H    -3.1   -3.5    3.6
