          35
 sphere cut out from bulk 
C    -0.2   -0.4    0.2
C    -0.2   -0.5    1.7
O     0.7   -0.9    2.4
H     0.7    0.3   -0.1
H    -1.1   -0.0   -0.3
H     0.1   -1.4   -0.2
N    -1.4   -0.1    2.2
C    -1.7   -0.2    3.7
C    -2.9   -1.0    4.1
O    -2.9   -1.8    5.0
H    -2.1    0.2    1.6
H    -0.9   -0.7    4.1
C    -1.8    1.2    4.3
C    -0.4    1.9    4.4
C     0.4    1.6    5.7
N     0.5    0.1    6.1
C     1.7   -0.6    6.0
N     2.4   -0.2    4.8
N     2.2   -1.4    6.8
H    -2.2    1.1    5.3
H    -2.4    1.9    3.7
H    -0.5    3.0    4.4
H     0.2    1.6    3.6
H    -0.2    2.0    6.6
H     1.4    2.0    5.7
H    -0.1   -0.2    6.9
H     1.9   -0.3    3.9
H     3.3   -0.8    4.8
H     1.6   -1.4    7.6
N    -4.1   -0.9    3.4
C    -4.5    0.0    2.3
H    -4.8   -1.5    3.8
H    -5.6    0.1    2.3
H    -4.2   -0.4    1.3
H    -4.1    1.0    2.4
