          35
 sphere cut out from bulk 
C     0.4    0.1   -0.5
C     0.5    0.0    1.0
O     1.5   -0.2    1.6
H     1.0    0.9   -0.8
H    -0.6    0.1   -0.9
H     0.9   -0.8   -0.9
N    -0.7    0.2    1.7
C    -0.8    0.2    3.1
C    -0.4   -1.1    3.9
O     0.2   -0.9    5.0
H    -1.6    0.3    1.1
H    -0.2    1.0    3.5
C    -2.3    0.6    3.5
C    -2.6    0.6    5.0
C    -1.8    1.6    5.8
N    -2.2    1.7    7.2
C    -1.8    0.8    8.2
N    -2.4    0.9    9.4
N    -0.9   -0.2    8.0
H    -3.0   -0.2    3.0
H    -2.5    1.6    3.1
H    -2.5   -0.4    5.5
H    -3.7    0.8    5.1
H    -1.9    2.6    5.4
H    -0.7    1.4    5.8
H    -3.1    2.0    7.4
H    -2.0    0.3   10.1
H    -2.5    1.9    9.7
H    -0.6   -0.3    7.0
N    -0.7   -2.3    3.4
C    -1.3   -2.7    2.2
H    -0.2   -3.0    4.0
H    -1.6   -3.8    2.3
H    -0.6   -2.7    1.3
H    -2.2   -2.2    2.0
