          35
 sphere cut out from bulk 
C     1.0   -1.5    0.1
C     0.8   -0.9    1.5
O     1.6   -0.9    2.4
H     0.2   -1.3   -0.6
H     1.2   -2.5    0.2
H     1.9   -1.0   -0.3
N    -0.5   -0.4    1.7
C    -1.1    0.2    2.9
C    -1.3    1.8    2.8
O    -2.4    2.2    3.0
H    -1.1   -0.4    0.9
H    -2.2   -0.1    2.8
C    -0.6   -0.2    4.2
C    -0.7   -1.7    4.5
C    -0.1   -2.1    5.9
N     1.2   -1.5    6.3
C     2.4   -2.1    6.0
N     2.4   -2.7    4.8
N     3.4   -2.2    6.8
H    -1.2    0.3    5.0
H     0.5    0.1    4.4
H    -0.1   -2.2    3.8
H    -1.7   -2.0    4.4
H    -0.1   -3.2    6.0
H    -0.9   -1.7    6.7
H     1.2   -1.1    7.2
H     3.4   -3.1    4.6
H     2.1   -2.1    4.0
H     3.1   -1.9    7.8
N    -0.2    2.6    2.6
C     1.2    2.2    2.3
H    -0.5    3.5    2.5
H     1.4    2.2    1.3
H     1.4    1.3    2.8
H     1.8    3.0    2.8
