          35
 sphere cut out from bulk 
C     1.0   -0.3    0.8
C     0.3   -0.8    2.0
O     0.6   -1.7    2.7
H     2.1   -0.0    1.1
H     0.6    0.6    0.3
H     1.1   -1.1    0.1
N    -0.9   -0.0    2.3
C    -1.6   -0.3    3.5
C    -3.1   -0.8    3.2
O    -3.5   -1.9    3.8
H    -1.0    0.8    1.8
H    -1.2   -1.2    3.9
C    -1.6    0.8    4.5
C    -0.2    1.0    5.2
C     0.3   -0.2    6.0
N    -0.5   -0.6    7.1
C    -1.6   -1.3    6.9
N    -1.5   -2.5    6.2
N    -2.7   -0.9    7.5
H    -2.4    0.6    5.3
H    -2.0    1.7    4.1
H     0.5    1.3    4.4
H    -0.3    1.9    5.8
H     1.3    0.1    6.4
H     0.5   -1.0    5.3
H    -0.7    0.1    7.8
H    -2.3   -2.6    5.5
H    -0.6   -2.7    5.7
H    -3.5   -1.7    7.5
N    -3.9   -0.2    2.4
C    -3.7    1.0    1.6
H    -4.8   -0.6    2.3
H    -4.6    1.5    1.4
H    -3.1    0.8    0.7
H    -3.1    1.8    2.2
