          35
 sphere cut out from bulk 
C    -0.2    0.7    0.2
C    -0.1    0.6    1.7
O     0.9    0.8    2.3
H     0.8    1.0   -0.2
H    -0.9    1.5   -0.1
H    -0.6   -0.2   -0.3
N    -1.3    0.3    2.4
C    -2.6   -0.1    1.8
C    -3.6    0.5    2.7
O    -4.1   -0.1    3.7
H    -1.1    0.1    3.4
H    -2.6    0.4    0.8
C    -2.8   -1.6    1.7
C    -4.1   -2.0    1.0
C    -4.3   -1.5   -0.4
N    -5.5   -2.0   -1.0
C    -6.1   -1.5   -2.1
N    -5.2   -1.0   -3.0
N    -7.4   -1.5   -2.4
H    -2.7   -2.0    2.7
H    -1.9   -2.0    1.1
H    -4.9   -1.7    1.6
H    -4.2   -3.1    1.0
H    -3.4   -1.8   -1.0
H    -4.3   -0.4   -0.4
H    -6.2   -2.3   -0.3
H    -5.7   -0.8   -3.9
H    -4.3   -1.5   -3.1
H    -7.9   -1.8   -1.6
N    -4.1    1.8    2.4
C    -3.6    2.7    1.3
H    -4.7    2.2    3.0
H    -2.5    2.9    1.5
H    -4.1    3.6    1.4
H    -3.7    2.2    0.3
