          35
 sphere cut out from bulk 
C    -0.1    1.8   -0.0
C    -0.3    2.0    1.4
O     0.3    2.9    2.0
H     0.8    2.2   -0.4
H    -0.9    2.3   -0.6
H    -0.2    0.7   -0.3
N    -1.2    1.2    2.1
C    -1.6    1.3    3.5
C    -1.1    0.1    4.2
O    -1.6   -1.0    4.2
H    -1.6    0.4    1.5
H    -1.1    2.2    3.8
C    -3.1    1.5    3.6
C    -3.7    2.6    2.8
C    -4.3    2.2    1.5
N    -4.9    3.3    0.8
C    -4.2    4.0   -0.2
N    -5.0    5.0   -0.8
N    -3.0    3.7   -0.5
H    -3.3    1.6    4.7
H    -3.6    0.5    3.4
H    -3.0    3.4    2.6
H    -4.5    3.1    3.4
H    -5.0    1.4    1.6
H    -3.5    1.8    0.8
H    -5.9    3.2    0.6
H    -4.5    5.6   -1.4
H    -5.6    5.5   -0.2
H    -2.6    4.4   -1.1
N     0.1    0.2    5.0
C     0.9    1.4    5.1
H     0.4   -0.6    5.4
H     2.0    1.1    5.3
H     0.6    2.1    5.9
H     1.0    2.0    4.2
