          35
 sphere cut out from bulk 
C     0.1    1.8    1.2
C    -0.3    1.0    2.4
O    -0.6    1.4    3.5
H     1.0    2.4    1.5
H    -0.7    2.5    1.0
H     0.4    1.3    0.3
N    -0.3   -0.4    2.2
C    -0.6   -1.3    3.2
C     0.1   -2.7    2.8
O     0.5   -2.8    1.6
H     0.1   -0.8    1.3
H    -0.1   -1.0    4.1
C    -2.1   -1.5    3.5
C    -2.9   -2.1    2.3
C    -4.4   -2.2    2.6
N    -5.2   -3.0    1.6
C    -5.2   -4.3    1.6
N    -5.8   -4.9    0.5
N    -4.7   -5.2    2.5
H    -2.5   -0.5    3.7
H    -2.3   -2.1    4.4
H    -2.5   -3.1    2.1
H    -2.7   -1.6    1.4
H    -4.8   -1.2    2.6
H    -4.6   -2.6    3.6
H    -5.2   -2.5    0.7
H    -6.7   -4.4    0.2
H    -5.9   -5.9    0.5
H    -4.1   -4.7    3.2
N     0.1   -3.6    3.7
C     0.5   -5.0    3.4
H    -0.3   -3.4    4.6
H     1.0   -5.0    2.4
H    -0.3   -5.7    3.5
H     1.3   -5.3    4.2
