          35
 sphere cut out from bulk 
C    -1.6   -0.6    0.1
C    -0.6   -0.8    1.2
O     0.3   -1.6    1.0
H    -1.4   -1.3   -0.7
H    -1.6    0.4   -0.3
H    -2.7   -0.8    0.4
N    -0.8   -0.1    2.3
C    -1.9    0.9    2.6
C    -1.3    2.2    3.3
O    -1.8    2.6    4.3
H    -0.1   -0.3    3.1
H    -2.3    1.2    1.7
C    -3.0    0.2    3.5
C    -2.5   -0.8    4.5
C    -1.6   -0.2    5.7
N    -0.7   -1.2    6.3
C     0.5   -1.6    5.7
N     1.1   -2.6    6.3
N     0.8   -1.0    4.6
H    -3.6   -0.3    2.8
H    -3.5    1.0    4.0
H    -1.9   -1.6    4.0
H    -3.3   -1.3    5.0
H    -2.2    0.2    6.5
H    -1.0    0.6    5.3
H    -1.1   -1.9    6.8
H     2.0   -2.8    5.9
H     1.1   -2.6    7.3
H     1.8   -1.3    4.3
N    -0.3    2.8    2.6
C     0.3    2.5    1.3
H    -0.0    3.7    3.1
H    -0.4    2.3    0.6
H     1.0    1.7    1.4
H     0.8    3.5    1.0
