          35
 sphere cut out from bulk 
C    -1.1   -0.8    0.2
C    -0.9   -0.6    1.7
O    -0.1   -1.3    2.3
H    -1.4   -1.9    0.0
H    -0.2   -0.6   -0.4
H    -2.0   -0.2   -0.2
N    -1.6    0.4    2.2
C    -1.3    0.9    3.6
C    -2.5    0.7    4.6
O    -2.5    1.3    5.6
H    -2.1    1.1    1.6
H    -0.6    0.2    4.0
C    -0.7    2.3    3.6
C    -1.5    3.4    2.9
C    -2.9    3.7    3.4
N    -3.0    4.1    4.8
C    -3.9    5.0    5.3
N    -4.2    6.0    4.5
N    -4.5    4.9    6.5
H     0.3    2.3    3.2
H    -0.6    2.6    4.7
H    -1.6    3.2    1.8
H    -0.9    4.4    3.0
H    -3.6    2.8    3.2
H    -3.4    4.5    2.8
H    -2.8    3.3    5.4
H    -4.8    6.7    5.0
H    -3.4    6.5    4.0
H    -4.3    4.0    6.9
N    -3.5   -0.1    4.2
C    -4.6   -0.5    5.0
H    -3.3   -0.6    3.3
H    -4.6    0.1    5.9
H    -4.5   -1.6    5.3
H    -5.5   -0.4    4.5
