          35
 sphere cut out from bulk 
C     1.2   -0.1    0.7
C     0.7    0.0    2.1
O     1.4    0.3    3.0
H     0.6   -0.7   -0.0
H     2.2   -0.5    0.8
H     1.3    0.9    0.3
N    -0.7   -0.3    2.2
C    -1.5    0.0    3.3
C    -1.7    1.6    3.4
O    -1.2    2.4    2.7
H    -1.2   -0.3    1.3
H    -2.5   -0.4    3.0
C    -1.1   -0.8    4.6
C    -0.7   -0.1    6.0
C     0.7    0.6    6.1
N     0.8    1.9    5.4
C     0.3    3.0    5.9
N    -0.1    3.0    7.2
N     0.1    4.1    5.2
H    -0.2   -1.4    4.3
H    -1.9   -1.5    4.8
H    -0.8   -0.9    6.7
H    -1.5    0.6    6.2
H     1.4   -0.1    5.6
H     0.9    0.6    7.1
H     1.0    1.8    4.4
H    -0.3    4.0    7.5
H     0.5    2.5    7.9
H     0.2    4.0    4.2
N    -2.7    1.9    4.3
C    -3.1    3.3    4.5
H    -3.1    1.3    4.9
H    -2.2    3.9    4.9
H    -3.9    3.4    5.2
H    -3.4    3.8    3.5
