          35
 sphere cut out from bulk 
C    -1.5   -0.0   -0.1
C    -1.4   -1.2    0.9
O    -0.6   -2.1    0.7
H    -0.7    0.7    0.1
H    -2.5    0.5   -0.1
H    -1.4   -0.4   -1.1
N    -2.4   -1.1    1.9
C    -2.3   -1.9    3.1
C    -1.2   -1.4    4.0
O    -0.2   -0.8    3.6
H    -2.9   -0.2    2.0
H    -3.3   -1.7    3.6
C    -2.3   -3.5    2.8
C    -1.4   -4.4    3.6
C     0.1   -4.2    3.3
N     0.8   -4.2    4.6
C     2.1   -3.6    4.7
N     2.3   -2.5    3.9
N     3.0   -4.2    5.5
H    -2.0   -3.6    1.7
H    -3.4   -3.8    2.8
H    -1.7   -5.4    3.4
H    -1.6   -4.2    4.7
H     0.2   -3.3    2.8
H     0.4   -5.0    2.7
H     0.8   -5.1    5.1
H     3.2   -2.0    4.1
H     1.5   -1.9    3.7
H     3.8   -3.6    5.6
N    -1.4   -1.7    5.3
C    -0.4   -1.5    6.4
H    -2.2   -2.3    5.6
H    -0.9   -1.1    7.3
H     0.3   -0.7    6.0
H     0.2   -2.4    6.6
