          35
 sphere cut out from bulk 
C    -0.2   -0.1    2.9
C    -0.5    1.3    3.2
O     0.2    2.0    3.9
H    -0.2   -0.3    1.8
H    -0.9   -0.8    3.4
H     0.8   -0.3    3.2
N    -1.7    1.8    2.6
C    -2.6    1.2    1.8
C    -2.4    1.2    0.3
O    -3.1    0.7   -0.5
H    -1.9    2.8    2.9
H    -2.6    0.1    2.0
C    -4.1    1.7    2.1
C    -4.6    1.3    3.4
C    -5.1   -0.2    3.5
N    -5.4   -0.7    4.8
C    -4.4   -1.1    5.7
N    -4.9   -1.4    7.0
N    -3.1   -1.1    5.5
H    -4.7    1.3    1.3
H    -4.0    2.8    2.0
H    -5.5    1.9    3.7
H    -3.9    1.5    4.2
H    -4.3   -0.8    3.1
H    -6.0   -0.3    2.9
H    -6.2   -0.3    5.2
H    -4.1   -1.8    7.6
H    -5.7   -2.0    7.0
H    -2.8   -0.7    4.6
N    -1.3    2.0   -0.1
C    -0.9    2.2   -1.5
H    -0.8    2.4    0.7
H     0.1    1.8   -1.6
H    -0.9    3.2   -1.8
H    -1.6    1.6   -2.1
