          35
 sphere cut out from bulk 
C     0.6    0.2    0.0
C     0.2    0.4    1.5
O     0.8    1.1    2.3
H     1.7   -0.1    0.0
H     0.5    1.2   -0.4
H     0.0   -0.5   -0.5
N    -0.9   -0.3    1.9
C    -1.6   -0.4    3.1
C    -2.7    0.7    3.2
O    -3.9    0.3    2.8
H    -1.4   -0.8    1.1
H    -2.2   -1.3    3.1
C    -0.7   -0.5    4.3
C    -1.4   -0.7    5.7
C    -0.5   -0.7    6.9
N     0.3    0.5    7.1
C    -0.3    1.6    7.6
N     0.6    2.7    7.6
N    -1.5    1.8    8.1
H     0.0    0.3    4.4
H    -0.0   -1.4    4.2
H    -2.0   -1.6    5.6
H    -2.2    0.1    5.8
H     0.2   -1.6    6.8
H    -1.1   -0.9    7.8
H     1.1    0.6    6.5
H     0.2    3.5    8.1
H     1.6    2.5    7.9
H    -2.1    1.0    8.0
N    -2.5    2.0    3.6
C    -1.3    2.6    4.1
H    -3.4    2.5    3.6
H    -0.4    2.2    3.6
H    -1.2    2.5    5.2
H    -1.4    3.7    3.9
