          35
 sphere cut out from bulk 
C     0.0    0.6   -0.2
C    -0.3    1.1    1.2
O    -0.1    2.2    1.6
H     1.1    0.7   -0.4
H    -0.5    1.3   -0.9
H    -0.3   -0.4   -0.5
N    -0.7    0.1    2.0
C    -1.0    0.2    3.5
C    -1.7    1.6    3.8
O    -1.3    2.3    4.6
H    -0.8   -0.9    1.7
H    -1.6   -0.6    3.8
C     0.3    0.1    4.3
C     0.1   -0.2    5.8
C     1.4   -0.2    6.5
N     1.1   -0.6    8.0
C     2.1   -0.9    8.9
N     3.4   -1.1    8.4
N     1.9   -1.1   10.1
H     0.9    1.1    4.2
H     0.9   -0.6    3.8
H    -0.4   -1.2    5.8
H    -0.6    0.6    6.2
H     1.9    0.7    6.4
H     2.0   -1.0    6.1
H     0.3   -0.1    8.3
H     4.0   -1.3    9.1
H     3.7   -0.5    7.7
H     0.9   -1.0   10.4
N    -3.0    1.8    3.2
C    -3.6    1.0    2.1
H    -3.4    2.6    3.4
H    -4.7    1.2    2.2
H    -3.5   -0.1    2.3
H    -3.2    1.2    1.1
