          35
 sphere cut out from bulk 
C     0.1   -0.0    0.3
C    -0.1   -0.2    1.8
O     0.8   -0.2    2.6
H     1.2    0.3    0.2
H    -0.6    0.7   -0.2
H     0.1   -1.0   -0.2
N    -1.4   -0.3    2.2
C    -2.7   -0.2    1.5
C    -2.7   -1.1    0.2
O    -2.9   -0.6   -0.9
H    -1.5   -0.4    3.2
H    -3.5   -0.6    2.2
C    -3.1    1.3    1.2
C    -4.5    1.5    0.7
C    -5.6    1.0    1.7
N    -6.9    1.4    1.3
C    -8.0    1.1    2.1
N    -9.2    1.4    1.5
N    -7.8    0.6    3.2
H    -2.4    1.7    0.4
H    -2.9    1.9    2.1
H    -4.7    1.0   -0.2
H    -4.7    2.6    0.6
H    -5.4    1.5    2.7
H    -5.5   -0.1    1.9
H    -7.1    1.4    0.3
H   -10.0    1.3    2.1
H    -9.2    2.3    0.9
H    -8.7    0.5    3.8
N    -2.6   -2.4    0.4
C    -2.5   -3.1    1.7
H    -2.6   -2.9   -0.5
H    -2.7   -4.2    1.5
H    -3.1   -2.8    2.4
H    -1.4   -3.1    2.0
