          35
 sphere cut out from bulk 
C    -1.5   -1.1    0.4
C    -0.8   -0.9    1.7
O    -0.1   -1.9    2.2
H    -1.0   -2.0   -0.1
H    -1.5   -0.2   -0.2
H    -2.5   -1.4    0.6
N    -0.9    0.3    2.3
C    -2.0    1.2    2.1
C    -1.6    2.5    1.4
O    -2.4    3.0    0.5
H    -0.3    0.3    3.2
H    -2.7    0.8    1.5
C    -2.7    1.5    3.5
C    -3.6    0.4    4.1
C    -3.0   -1.0    4.3
N    -1.6   -1.1    4.9
C    -1.1   -0.1    5.7
N    -1.9    0.2    6.8
N     0.1    0.3    5.4
H    -3.3    2.4    3.3
H    -1.9    1.8    4.2
H    -4.4    0.3    3.4
H    -4.0    0.8    5.0
H    -3.0   -1.6    3.4
H    -3.7   -1.5    5.0
H    -0.9   -1.4    4.2
H    -2.4   -0.5    7.2
H    -1.4    0.8    7.5
H     0.5    0.9    6.2
N    -0.5    3.2    1.7
C     0.6    2.9    2.7
H    -0.3    4.0    1.1
H     1.1    3.8    3.0
H     1.3    2.1    2.3
H     0.2    2.5    3.6
