          35
 sphere cut out from bulk 
C    -0.2   -0.3   -0.5
C    -0.1   -0.4    1.0
O     0.9   -0.5    1.6
H    -1.2   -0.6   -0.9
H     0.5   -1.0   -0.9
H    -0.1    0.7   -0.8
N    -1.3   -0.3    1.7
C    -1.6    0.1    3.1
C    -1.5    1.6    3.2
O    -0.9    2.3    2.4
H    -2.1   -0.1    1.1
H    -2.6   -0.3    3.3
C    -0.6   -0.7    4.1
C    -0.7   -2.2    4.0
C     0.6   -2.8    4.6
N     1.8   -2.4    3.9
C     2.6   -1.4    4.5
N     3.4   -0.8    3.5
N     2.7   -1.3    5.8
H    -0.9   -0.3    5.1
H     0.4   -0.3    3.9
H    -0.7   -2.5    2.9
H    -1.6   -2.6    4.5
H     0.5   -3.9    4.5
H     0.7   -2.5    5.6
H     1.7   -2.3    2.9
H     3.9   -0.0    3.9
H     2.9   -0.5    2.7
H     3.3   -0.5    6.0
N    -2.1    2.1    4.3
C    -2.8    1.5    5.4
H    -2.0    3.1    4.4
H    -3.6    2.2    5.8
H    -2.2    1.2    6.2
H    -3.4    0.6    5.0
