          35
 sphere cut out from bulk 
C    -0.5   -0.8   -0.3
C    -0.4   -0.3    1.1
O     0.6   -0.5    1.8
H     0.3   -0.5   -0.9
H    -1.4   -0.6   -0.8
H    -0.4   -1.9   -0.3
N    -1.5    0.4    1.5
C    -1.6    0.8    2.9
C    -3.0    0.4    3.4
O    -4.0    0.4    2.5
H    -2.4    0.3    1.0
H    -0.9    0.2    3.5
C    -1.4    2.3    3.1
C     0.1    2.7    2.8
C     0.3    4.3    3.0
N    -0.1    4.8    4.2
C     0.7    4.6    5.4
N     0.0    5.1    6.5
N     1.8    4.0    5.5
H    -1.6    2.6    4.2
H    -2.1    2.9    2.5
H     0.3    2.5    1.8
H     0.7    2.2    3.5
H    -0.3    4.8    2.2
H     1.3    4.5    2.8
H    -1.1    5.0    4.4
H     0.7    5.1    7.3
H    -0.4    6.1    6.4
H     2.1    3.6    4.7
N    -3.2    0.2    4.7
C    -4.5   -0.1    5.3
H    -2.4    0.2    5.3
H    -4.7    0.7    6.1
H    -4.5   -1.0    5.8
H    -5.2   -0.0    4.5
