          35
 sphere cut out from bulk 
C     0.8    0.4   -0.6
C    -0.2    0.2    0.5
O    -1.0    1.1    0.8
H     1.5    1.2   -0.3
H     0.3    0.6   -1.5
H     1.5   -0.5   -0.7
N    -0.2   -1.0    1.1
C    -1.1   -1.3    2.3
C    -0.4   -2.5    3.0
O     0.6   -3.1    2.5
H     0.5   -1.7    1.0
H    -1.0   -0.4    3.0
C    -2.5   -1.5    1.9
C    -2.8   -2.7    1.0
C    -3.3   -4.0    1.7
N    -4.6   -3.7    2.4
C    -4.7   -3.4    3.7
N    -5.8   -2.7    4.1
N    -3.8   -3.8    4.7
H    -2.8   -0.6    1.4
H    -3.1   -1.6    2.8
H    -1.9   -3.0    0.4
H    -3.6   -2.4    0.2
H    -2.6   -4.3    2.4
H    -3.5   -4.8    0.9
H    -5.4   -3.5    1.8
H    -5.8   -2.4    5.1
H    -6.0   -1.9    3.5
H    -3.2   -4.5    4.3
N    -0.9   -2.9    4.2
C    -0.4   -4.0    4.9
H    -1.9   -2.6    4.4
H    -1.0   -4.1    5.8
H     0.6   -3.9    5.1
H    -0.5   -5.0    4.3
