          35
 sphere cut out from bulk 
C    -0.0   -0.1   -0.2
C     0.2   -0.9    1.0
O     1.1   -1.8    1.1
H     0.7   -0.5   -1.0
H     0.2    0.9   -0.0
H    -1.1   -0.2   -0.6
N    -0.6   -0.7    2.1
C    -1.6    0.4    2.2
C    -1.1    1.8    2.4
O    -1.9    2.7    2.1
H    -0.4   -1.3    2.9
H    -2.2    0.4    1.3
C    -2.6    0.0    3.4
C    -2.1    0.2    4.8
C    -2.4    1.5    5.5
N    -3.8    1.7    5.8
C    -4.7    2.5    5.0
N    -6.0    2.4    5.6
N    -4.5    3.1    4.0
H    -2.9   -1.0    3.2
H    -3.5    0.6    3.2
H    -1.0   -0.0    4.8
H    -2.5   -0.6    5.4
H    -2.1    2.4    4.8
H    -1.8    1.6    6.4
H    -4.2    1.1    6.4
H    -6.6    3.0    5.1
H    -6.0    2.6    6.6
H    -3.6    3.0    3.5
N     0.2    2.1    2.8
C     1.3    1.3    3.3
H     0.3    3.1    2.8
H     2.0    1.9    3.7
H     1.8    0.7    2.5
H     1.0    0.6    4.0
