          35
 sphere cut out from bulk 
C     0.7   -0.3    0.2
C     0.5    0.1    1.6
O     1.5    0.5    2.3
H    -0.2   -0.6   -0.3
H     1.4   -1.2    0.1
H     1.2    0.5   -0.3
N    -0.7   -0.1    2.1
C    -1.1    0.1    3.5
C    -0.4    1.3    4.2
O     0.1    1.2    5.3
H    -1.4   -0.5    1.5
H    -2.2    0.4    3.5
C    -1.0   -1.2    4.4
C     0.3   -1.8    4.5
C     0.3   -3.1    5.3
N    -0.5   -4.1    4.7
C    -0.8   -5.4    5.3
N    -0.8   -5.4    6.7
N    -1.1   -6.3    4.5
H    -1.8   -1.9    4.0
H    -1.4   -0.9    5.4
H     1.1   -1.1    4.9
H     0.7   -2.1    3.5
H    -0.1   -2.8    6.3
H     1.4   -3.4    5.5
H    -0.4   -4.2    3.7
H    -0.7   -6.3    7.1
H    -0.1   -4.7    7.2
H    -1.3   -7.2    5.1
N    -0.6    2.5    3.7
C    -1.1    2.9    2.4
H    -0.0    3.2    4.2
H    -1.4    4.0    2.4
H    -2.0    2.4    2.2
H    -0.4    2.8    1.5
