          35
 sphere cut out from bulk 
C    -1.6    1.5    2.7
C    -1.7    0.6    3.9
O    -1.2    0.9    5.0
H    -0.6    1.9    2.7
H    -2.3    2.3    2.8
H    -1.7    0.9    1.7
N    -2.4   -0.6    3.7
C    -2.6   -1.6    4.7
C    -1.9   -2.9    4.2
O    -2.1   -3.2    3.0
H    -2.6   -0.8    2.7
H    -2.0   -1.2    5.6
C    -4.0   -1.9    5.1
C    -4.8   -0.9    6.0
C    -5.1    0.5    5.4
N    -4.1    1.5    5.7
C    -4.1    2.8    5.2
N    -2.9    3.5    5.5
N    -5.0    3.3    4.5
H    -4.1   -2.9    5.6
H    -4.6   -2.0    4.1
H    -4.3   -0.8    6.9
H    -5.8   -1.4    6.2
H    -6.1    0.8    5.8
H    -5.2    0.4    4.3
H    -3.2    1.1    6.0
H    -2.1    2.9    5.5
H    -2.9    4.3    5.0
H    -5.9    2.7    4.5
N    -1.3   -3.6    5.1
C    -0.7   -4.9    4.7
H    -1.2   -3.2    6.0
H    -1.1   -5.7    5.3
H     0.4   -4.8    4.9
H    -0.9   -5.1    3.7
