          35
 sphere cut out from bulk 
C    -0.8   -0.3   -0.1
C    -0.5    0.0    1.3
O     0.6    0.2    1.8
H    -0.3    0.5   -0.8
H    -1.8   -0.4   -0.4
H    -0.2   -1.2   -0.4
N    -1.6    0.1    2.1
C    -1.6    0.2    3.5
C    -2.7   -0.7    4.1
O    -3.6   -1.1    3.4
H    -2.5   -0.3    1.8
H    -0.6   -0.1    3.9
C    -1.8    1.6    4.0
C    -0.7    2.6    3.7
C    -0.8    4.0    4.5
N    -0.7    3.8    6.0
C    -1.8    3.5    6.8
N    -2.9    4.3    6.5
N    -1.7    2.7    7.7
H    -2.0    1.6    5.1
H    -2.8    2.0    3.6
H    -0.6    2.8    2.7
H     0.3    2.1    4.0
H    -1.8    4.4    4.3
H    -0.0    4.6    4.2
H     0.1    3.2    6.3
H    -3.7    4.3    7.2
H    -2.7    5.3    6.2
H    -2.5    2.7    8.3
N    -2.5   -1.1    5.4
C    -1.5   -0.8    6.4
H    -3.3   -1.6    5.8
H    -1.4   -1.5    7.2
H    -1.6    0.2    6.8
H    -0.5   -0.8    5.9
