          35
 sphere cut out from bulk 
C     0.2    1.6    0.4
C    -0.1    0.8    1.6
O     0.7    0.9    2.6
H     1.3    1.7    0.2
H    -0.2    2.6    0.5
H    -0.3    1.2   -0.5
N    -1.2    0.1    1.6
C    -1.8   -0.5    2.8
C    -1.8    0.6    4.0
O    -2.3    1.7    3.7
H    -1.9    0.2    0.8
H    -2.9   -0.6    2.6
C    -1.3   -1.9    3.2
C     0.2   -2.1    3.4
C     1.0   -2.5    2.1
N     0.6   -3.6    1.4
C    -0.2   -3.6    0.3
N    -0.5   -4.9   -0.2
N    -0.7   -2.6   -0.3
H    -1.6   -2.6    2.4
H    -1.9   -2.2    4.1
H     0.3   -3.0    4.1
H     0.7   -1.3    3.9
H     2.1   -2.6    2.4
H     1.0   -1.6    1.4
H     0.7   -4.5    1.9
H    -1.0   -4.9   -1.1
H     0.3   -5.5   -0.2
H    -0.5   -1.8    0.2
N    -1.4    0.2    5.2
C    -1.3    1.1    6.3
H    -0.8   -0.7    5.2
H    -1.4    0.6    7.2
H    -2.2    1.8    6.2
H    -0.4    1.7    6.2
