          35
 sphere cut out from bulk 
C    -0.2    0.3   -0.1
C    -0.2   -0.3    1.3
O     0.7   -1.0    1.7
H    -0.1   -0.5   -0.8
H     0.6    1.0   -0.2
H    -1.1    0.9   -0.3
N    -1.2    0.0    2.1
C    -1.3   -0.4    3.5
C    -1.2   -1.9    3.8
O    -0.6   -2.2    4.8
H    -1.9    0.7    1.8
H    -0.4    0.1    4.0
C    -2.6    0.2    4.1
C    -2.7    0.0    5.6
C    -3.9    0.7    6.2
N    -4.0    2.2    6.0
C    -3.6    3.1    7.0
N    -2.7    2.7    7.9
N    -4.0    4.4    7.0
H    -3.5   -0.2    3.6
H    -2.6    1.3    3.9
H    -1.8    0.4    6.1
H    -2.7   -1.0    5.9
H    -4.0    0.5    7.3
H    -4.8    0.3    5.8
H    -4.7    2.5    5.4
H    -2.3    3.4    8.5
H    -1.9    2.0    7.6
H    -4.7    4.5    6.4
N    -1.9   -2.8    3.0
C    -2.6   -2.6    1.8
H    -1.7   -3.7    3.3
H    -1.9   -2.5    0.9
H    -3.3   -1.8    1.8
H    -3.2   -3.5    1.6
