          35
 sphere cut out from bulk 
C     0.2    0.4   -0.3
C     0.0    0.4    1.2
O     0.9    0.8    2.0
H     0.4    1.4   -0.6
H    -0.7    0.0   -0.8
H     1.0   -0.2   -0.6
N    -1.2   -0.1    1.7
C    -1.4   -0.2    3.2
C    -2.4   -1.3    3.3
O    -3.3   -1.5    2.5
H    -1.9   -0.4    1.1
H    -0.5   -0.3    3.6
C    -2.0    1.2    3.7
C    -2.1    1.2    5.2
C    -2.7    2.6    5.7
N    -2.7    2.8    7.2
C    -3.7    2.1    7.9
N    -3.5    2.3    9.3
N    -4.6    1.4    7.3
H    -3.0    1.3    3.2
H    -1.4    2.0    3.3
H    -1.1    1.1    5.7
H    -2.8    0.5    5.6
H    -3.7    2.7    5.3
H    -2.1    3.4    5.3
H    -1.8    2.9    7.6
H    -4.3    2.0    9.8
H    -3.2    3.2    9.5
H    -5.3    1.1    8.0
N    -2.3   -2.1    4.4
C    -1.4   -2.1    5.5
H    -3.1   -2.8    4.5
H    -1.1   -3.1    5.8
H    -1.8   -1.6    6.4
H    -0.5   -1.6    5.2
