          35
 sphere cut out from bulk 
C     0.4    0.3    1.5
C    -0.1   -0.3    2.8
O     0.6   -0.9    3.6
H    -0.2   -0.1    0.7
H     1.4   -0.1    1.4
H     0.4    1.4    1.5
N    -1.4   -0.0    3.1
C    -2.4    0.8    2.4
C    -2.1    2.4    2.4
O    -2.6    3.0    1.5
H    -1.7   -0.4    4.0
H    -2.3    0.6    1.3
C    -3.8    0.5    2.8
C    -4.2    0.9    4.2
C    -5.7    0.5    4.5
N    -6.0    0.9    5.8
C    -7.3    0.5    6.4
N    -7.5    1.0    7.6
N    -8.2   -0.2    5.8
H    -4.0   -0.6    2.6
H    -4.5    1.1    2.1
H    -4.1    1.9    4.4
H    -3.6    0.3    4.9
H    -5.8   -0.6    4.3
H    -6.3    1.0    3.7
H    -5.7    1.8    6.2
H    -6.7    1.0    8.3
H    -8.4    0.7    8.0
H    -8.0   -0.4    4.8
N    -1.4    3.0    3.4
C    -0.9    2.5    4.7
H    -1.4    4.0    3.3
H    -1.6    1.9    5.2
H    -0.6    3.3    5.3
H     0.0    1.9    4.5
