          35
 sphere cut out from bulk 
C    -0.3   -0.3    0.0
C    -0.1    0.3    1.4
O     0.9    0.8    1.8
H    -0.8    0.4   -0.7
H    -0.8   -1.2    0.0
H     0.8   -0.4   -0.4
N    -1.3    0.3    2.2
C    -2.6   -0.3    2.0
C    -2.4   -1.9    2.0
O    -1.6   -2.5    2.7
H    -1.1    0.7    3.1
H    -3.1   -0.2    3.0
C    -3.4    0.3    0.9
C    -3.5    1.8    0.9
C    -4.1    2.4    2.2
N    -5.4    1.9    2.6
C    -6.6    2.1    1.9
N    -7.7    1.4    2.5
N    -6.5    2.9    0.9
H    -4.4   -0.1    1.0
H    -3.0    0.0   -0.1
H    -4.1    2.2    0.1
H    -2.5    2.3    0.8
H    -4.2    3.5    2.1
H    -3.4    2.3    3.1
H    -5.4    1.0    3.1
H    -8.6    1.7    2.0
H    -7.7    1.4    3.5
H    -7.5    3.1    0.6
N    -3.2   -2.5    1.1
C    -3.2   -4.0    0.9
H    -3.8   -2.0    0.5
H    -2.9   -4.3   -0.0
H    -4.2   -4.4    1.1
H    -2.5   -4.4    1.7
