          35
 sphere cut out from bulk 
C    -0.4    1.0   -0.7
C    -0.8    1.1    0.8
O    -1.2    2.2    1.3
H    -0.2   -0.1   -1.0
H     0.4    1.6   -0.9
H    -1.2    1.3   -1.3
N    -0.6   -0.0    1.6
C    -0.8   -0.1    3.0
C    -2.1    0.7    3.5
O    -2.1    1.5    4.3
H    -0.3   -0.8    1.1
H    -1.0   -1.1    3.2
C     0.3    0.5    3.8
C     0.4   -0.1    5.2
C     1.0   -1.5    5.3
N     0.9   -2.2    6.6
C    -0.3   -2.8    7.0
N    -0.2   -3.2    8.3
N    -1.4   -2.9    6.3
H     0.3    1.6    3.8
H     1.3    0.2    3.2
H    -0.6   -0.1    5.7
H     1.1    0.6    5.8
H     2.0   -1.5    5.0
H     0.5   -2.2    4.5
H     1.4   -1.8    7.3
H    -1.1   -3.8    8.6
H     0.6   -3.8    8.5
H    -1.4   -2.4    5.5
N    -3.3    0.2    2.9
C    -3.6   -0.7    1.9
H    -4.1    0.8    3.2
H    -4.6   -1.1    1.9
H    -2.9   -1.6    2.0
H    -3.4   -0.3    0.8
