          35
 sphere cut out from bulk 
C    -0.2   -0.5    0.6
C    -0.1    0.5    1.7
O     1.0    0.9    2.1
H    -1.1   -0.5   -0.0
H    -0.1   -1.5    1.1
H     0.7   -0.4   -0.0
N    -1.2    1.0    2.2
C    -2.6    1.1    1.7
C    -3.1   -0.3    1.2
O    -3.8   -0.4    0.2
H    -1.0    1.8    2.9
H    -3.2    1.4    2.6
C    -2.9    2.2    0.7
C    -1.9    2.4   -0.5
C    -0.6    3.2   -0.2
N    -0.9    4.5    0.4
C    -0.8    4.7    1.8
N    -1.6    5.8    2.2
N    -0.2    4.0    2.7
H    -2.9    3.2    1.2
H    -3.9    2.0    0.3
H    -2.5    3.0   -1.3
H    -1.6    1.5   -0.9
H    -0.1    3.4   -1.2
H     0.1    2.7    0.4
H    -1.6    5.1   -0.1
H    -1.4    6.0    3.2
H    -1.6    6.6    1.6
H     0.4    3.3    2.2
N    -2.9   -1.3    2.1
C    -3.3   -2.6    1.9
H    -2.3   -1.1    2.9
H    -3.8   -3.1    2.8
H    -2.4   -3.3    1.6
H    -4.0   -2.6    1.1
