          35
 sphere cut out from bulk 
C     0.2    0.2   -0.0
C     0.1    0.1    1.5
O     1.1    0.1    2.2
H     0.9   -0.6   -0.4
H     0.6    1.1   -0.3
H    -0.8    0.0   -0.5
N    -1.2    0.1    2.0
C    -1.4   -0.0    3.4
C    -2.8   -0.7    3.6
O    -3.6   -0.8    2.7
H    -2.0   -0.0    1.4
H    -0.6   -0.7    3.9
C    -1.3    1.4    4.1
C    -2.4    2.3    3.7
C    -2.3    3.7    4.4
N    -3.3    4.7    4.0
C    -3.1    5.4    2.8
N    -4.2    6.2    2.5
N    -2.1    5.2    2.0
H    -0.3    1.8    3.9
H    -1.4    1.2    5.2
H    -3.4    1.9    3.9
H    -2.4    2.5    2.6
H    -1.3    4.1    4.1
H    -2.3    3.6    5.5
H    -4.2    4.5    4.2
H    -4.1    6.8    1.7
H    -4.6    6.7    3.3
H    -2.1    5.9    1.3
N    -3.0   -1.1    4.9
C    -4.3   -1.8    5.2
H    -2.3   -1.1    5.6
H    -4.1   -2.8    5.5
H    -4.9   -1.8    4.4
H    -4.7   -1.2    6.1
