          35
 sphere cut out from bulk 
C    -0.8   -0.6    0.2
C    -0.8   -0.2    1.7
O    -0.1    0.7    2.1
H    -0.9    0.3   -0.4
H    -1.6   -1.3   -0.1
H     0.2   -1.0   -0.0
N    -1.7   -1.0    2.4
C    -1.7   -0.9    3.9
C    -2.5   -2.1    4.5
O    -2.1   -2.6    5.6
H    -2.1   -1.8    2.0
H    -0.7   -1.1    4.3
C    -2.1    0.4    4.5
C    -3.5    0.9    4.2
C    -3.7    1.6    2.9
N    -5.1    2.0    2.6
C    -5.9    1.2    1.8
N    -5.3    0.6    0.7
N    -7.1    1.0    2.2
H    -1.4    1.2    4.2
H    -2.0    0.3    5.6
H    -3.8    1.7    5.0
H    -4.3    0.1    4.3
H    -3.3    1.0    2.1
H    -3.1    2.6    2.9
H    -5.6    2.4    3.4
H    -4.6    1.2    0.2
H    -5.9    0.2    0.1
H    -7.7    0.5    1.5
N    -3.6   -2.6    3.9
C    -4.5   -2.1    2.9
H    -4.0   -3.4    4.5
H    -5.5   -1.7    3.4
H    -4.8   -2.9    2.2
H    -4.1   -1.3    2.4
