          35
 sphere cut out from bulk 
C     1.3    0.0    0.3
C     0.4    0.6    1.5
O     0.5    1.8    1.8
H     2.3   -0.2    0.7
H     1.3    0.8   -0.5
H     0.9   -0.9   -0.1
N    -0.3   -0.4    2.1
C    -1.1   -0.3    3.4
C    -2.3    0.7    3.4
O    -3.2    0.4    4.2
H    -0.2   -1.3    1.8
H    -1.5   -1.3    3.5
C    -0.1   -0.1    4.6
C     0.3    1.4    5.0
C     1.8    1.5    5.3
N     2.6    1.2    4.1
C     3.4    0.1    3.9
N     4.0   -0.4    5.1
N     3.6   -0.4    2.7
H     0.7   -0.7    4.5
H    -0.7   -0.5    5.5
H    -0.3    1.7    5.8
H     0.1    2.0    4.2
H     2.1    0.8    6.1
H     2.0    2.5    5.6
H     2.2    1.5    3.2
H     4.7   -1.1    5.0
H     4.3    0.3    5.8
H     4.3   -1.1    2.7
N    -2.2    1.8    2.7
C    -3.3    2.8    2.7
H    -1.3    2.0    2.2
H    -3.4    3.2    1.7
H    -3.1    3.6    3.4
H    -4.2    2.3    3.0
