          35
 sphere cut out from bulk 
C    -0.0   -1.1    0.8
C    -1.2   -1.8    1.6
O    -1.5   -2.9    1.3
H    -0.3   -0.1    0.4
H     0.3   -1.8    0.0
H     0.8   -0.9    1.5
N    -1.9   -1.1    2.5
C    -1.6    0.3    3.0
C    -2.0    1.3    1.9
O    -3.1    1.3    1.4
H    -2.7   -1.5    2.9
H    -2.5    0.4    3.7
C    -0.4    0.4    3.9
C    -0.1   -0.6    5.0
C    -1.2   -0.7    6.1
N    -2.4   -1.5    5.8
C    -3.6   -1.0    5.4
N    -4.0    0.1    6.1
N    -4.2   -1.5    4.4
H     0.5    0.4    3.2
H    -0.4    1.4    4.3
H     0.8   -0.4    5.5
H    -0.0   -1.6    4.5
H    -1.5    0.3    6.4
H    -0.7   -1.1    7.0
H    -2.2   -2.3    5.2
H    -3.8    0.1    7.1
H    -5.0    0.4    5.9
H    -5.2   -1.2    4.2
N    -1.1    2.3    1.5
C     0.3    2.6    1.8
H    -1.6    2.9    0.8
H     0.9    1.7    1.5
H     0.5    2.9    2.8
H     0.6    3.4    1.1
