          35
 sphere cut out from bulk 
C     0.5    0.1   -0.1
C     0.4    0.1    1.5
O     1.4    0.3    2.2
H     0.9    1.1   -0.4
H    -0.5    0.0   -0.5
H     1.1   -0.7   -0.4
N    -0.9    0.0    2.0
C    -1.1   -0.1    3.4
C    -2.4   -0.8    3.6
O    -3.2   -1.0    2.7
H    -1.7   -0.2    1.4
H    -0.2   -0.7    3.9
C    -1.1    1.3    4.1
C    -2.2    2.2    3.7
C    -2.1    3.6    4.4
N    -3.1    4.6    4.0
C    -4.5    4.4    4.3
N    -4.8    3.8    5.5
N    -5.3    4.9    3.4
H    -0.1    1.8    3.9
H    -1.1    1.1    5.2
H    -3.2    1.8    3.9
H    -2.1    2.4    2.6
H    -1.1    4.1    4.1
H    -2.1    3.5    5.5
H    -3.0    5.0    3.1
H    -5.7    3.4    5.6
H    -4.0    3.3    6.0
H    -6.3    4.8    3.8
N    -2.6   -1.2    4.9
C    -3.9   -1.9    5.3
H    -1.9   -1.1    5.6
H    -4.3   -1.4    6.2
H    -3.7   -3.0    5.5
H    -4.5   -1.9    4.4
