          35
 sphere cut out from bulk 
C     0.0   -0.0    0.5
C    -0.3    0.0    2.0
O     0.6    0.1    2.8
H     0.9    0.6    0.3
H    -0.8    0.3   -0.2
H     0.2   -1.1    0.2
N    -1.6   -0.1    2.4
C    -2.9   -0.1    1.7
C    -2.9   -1.0    0.4
O    -3.2   -0.6   -0.7
H    -1.6   -0.0    3.4
H    -3.5   -0.6    2.4
C    -3.5    1.3    1.5
C    -2.6    2.3    0.7
C    -3.4    3.6    0.5
N    -2.6    4.7   -0.1
C    -1.7    5.4    0.6
N    -1.0    6.3   -0.2
N    -1.6    5.3    1.9
H    -3.7    1.7    2.5
H    -4.4    1.1    0.9
H    -2.4    1.9   -0.3
H    -1.7    2.5    1.2
H    -3.7    4.0    1.5
H    -4.3    3.5   -0.0
H    -2.4    4.5   -1.1
H    -0.1    6.6    0.2
H    -0.9    6.2   -1.2
H    -0.9    6.0    2.3
N    -2.5   -2.3    0.6
C    -2.1   -3.0    1.8
H    -2.5   -2.8   -0.3
H    -2.2   -4.1    1.6
H    -2.7   -2.7    2.6
H    -1.0   -2.8    2.0
