          35
 sphere cut out from bulk 
C     0.2    0.8    0.6
C     0.1    0.6    2.1
O     1.1    0.6    2.8
H    -0.2    1.8    0.4
H    -0.4    0.0    0.1
H     1.2    0.7    0.3
N    -1.1    0.4    2.8
C    -2.4    0.2    2.3
C    -2.6   -1.3    1.7
O    -1.8   -1.9    1.1
H    -0.9    0.2    3.8
H    -3.1    0.3    3.2
C    -3.0    1.2    1.2
C    -2.8    2.6    1.6
C    -3.2    3.6    0.5
N    -2.7    5.0    0.7
C    -1.4    5.2    0.5
N    -1.0    6.6    0.8
N    -0.6    4.4   -0.0
H    -4.0    0.9    1.0
H    -2.4    1.0    0.3
H    -1.8    2.8    1.9
H    -3.4    2.8    2.5
H    -4.2    3.6    0.4
H    -2.7    3.2   -0.4
H    -3.2    5.5    1.4
H    -0.1    6.7    1.1
H    -1.7    7.1    1.4
H     0.3    4.8   -0.2
N    -3.9   -1.9    2.0
C    -5.0   -1.4    2.8
H    -3.9   -2.8    1.6
H    -5.8   -2.1    2.8
H    -5.3   -0.4    2.4
H    -4.7   -1.2    3.9
