          35
 sphere cut out from bulk 
C    -2.3   -1.9    0.6
C    -1.6   -0.8    1.4
O    -1.2    0.2    0.8
H    -2.0   -2.9    1.0
H    -1.9   -1.9   -0.4
H    -3.4   -1.8    0.6
N    -1.6   -1.0    2.7
C    -1.0    0.1    3.6
C    -0.2   -0.6    4.7
O    -0.6   -1.7    5.2
H    -2.0   -1.8    3.1
H    -0.4    0.6    3.0
C    -2.1    1.0    4.2
C    -2.9    0.6    5.4
C    -3.7   -0.7    5.4
N    -4.7   -0.7    4.3
C    -4.8   -1.6    3.3
N    -4.1   -2.8    3.5
N    -5.4   -1.5    2.2
H    -2.8    1.2    3.3
H    -1.6    2.0    4.4
H    -3.6    1.5    5.7
H    -2.2    0.6    6.3
H    -4.2   -0.8    6.4
H    -3.0   -1.5    5.2
H    -5.2    0.2    4.2
H    -4.2   -3.2    4.5
H    -4.3   -3.5    2.8
H    -5.8   -0.5    2.1
N     0.8    0.1    5.2
C     1.6   -0.3    6.3
H     1.0    1.0    4.7
H     1.6    0.5    7.1
H     2.6   -0.5    6.0
H     1.2   -1.2    6.7
