          35
 sphere cut out from bulk 
C    -2.3   -0.3   -1.1
C    -1.6    0.3    0.1
O    -0.6    1.0   -0.0
H    -2.4    0.4   -1.9
H    -3.3   -0.7   -0.8
H    -1.7   -1.1   -1.4
N    -2.1    0.1    1.4
C    -1.4    0.3    2.6
C    -1.0    1.8    2.7
O     0.1    2.2    3.1
H    -2.9   -0.6    1.4
H    -2.1    0.2    3.4
C    -0.2   -0.7    2.8
C     0.4   -0.7    4.2
C     1.8   -0.0    4.3
N     2.8   -0.5    3.4
C     3.0   -0.1    2.1
N     2.5    1.2    1.8
N     3.5   -0.9    1.2
H     0.5   -0.5    2.0
H    -0.7   -1.6    2.6
H     0.5   -1.8    4.5
H    -0.2   -0.3    5.0
H     2.2   -0.2    5.3
H     1.7    1.1    4.2
H     3.1   -1.5    3.5
H     2.4    1.3    0.8
H     1.8    1.6    2.3
H     3.7   -0.5    0.3
N    -2.0    2.7    2.3
C    -1.8    4.1    2.2
H    -2.8    2.3    1.8
H    -2.8    4.6    2.3
H    -1.3    4.4    1.3
H    -1.1    4.4    3.0
