          35
 sphere cut out from bulk 
C    -0.9   -1.8    1.5
C    -1.2   -0.8    2.6
O    -0.9   -1.0    3.8
H     0.0   -1.5    1.0
H    -1.7   -1.9    0.7
H    -0.7   -2.8    2.0
N    -1.9    0.3    2.2
C    -2.5    0.8    1.0
C    -3.5   -0.2    0.4
O    -3.4   -0.6   -0.8
H    -2.1    0.9    3.1
H    -3.1    1.7    1.2
C    -1.4    1.2   -0.1
C    -0.5    2.2    0.4
C     0.7    2.4   -0.5
N     1.6    1.3   -0.7
C     1.4    0.1   -1.4
N     0.8    0.3   -2.7
N     1.7   -1.0   -0.9
H    -2.0    1.5   -1.0
H    -0.9    0.3   -0.4
H    -0.1    1.9    1.4
H    -1.0    3.2    0.6
H     1.3    3.3   -0.2
H     0.4    2.7   -1.5
H     2.1    1.0    0.2
H     0.5    1.3   -2.9
H     0.2   -0.4   -3.0
H     1.6   -1.8   -1.6
N    -4.6   -0.6    1.2
C    -4.9   -0.2    2.5
H    -5.2   -1.3    0.7
H    -6.0   -0.4    2.7
H    -4.8    0.9    2.6
H    -4.3   -0.7    3.3
