          35
 sphere cut out from bulk 
C    -0.0   -0.4   -0.2
C     0.2   -0.2    1.2
O     1.4    0.0    1.7
H     0.9   -0.3   -0.8
H    -0.7    0.4   -0.6
H    -0.5   -1.4   -0.4
N    -0.8   -0.3    2.1
C    -2.2   -0.2    1.7
C    -2.7    1.1    1.1
O    -3.5    1.1    0.2
H    -0.6   -0.1    3.0
H    -2.5   -0.9    0.9
C    -3.2   -0.6    2.9
C    -3.5   -2.1    3.1
C    -2.3   -3.0    3.4
N    -1.4   -3.4    2.3
C    -1.9   -4.0    1.2
N    -2.8   -5.0    1.4
N    -1.5   -3.5    0.0
H    -4.1   -0.1    2.8
H    -2.7   -0.2    3.8
H    -4.0   -2.5    2.2
H    -4.2   -2.1    3.9
H    -2.8   -4.0    3.9
H    -1.7   -2.6    4.2
H    -0.8   -2.6    2.1
H    -3.0   -5.5    0.6
H    -2.6   -5.6    2.2
H    -1.8   -4.1   -0.7
N    -2.2    2.3    1.6
C    -1.3    2.6    2.8
H    -2.6    3.1    1.1
H    -1.4    3.6    3.0
H    -0.3    2.3    2.5
H    -1.6    2.0    3.6
