          35
 sphere cut out from bulk 
C    -0.3   -0.6    2.2
C    -0.5    0.3    3.4
O     0.1    0.2    4.4
H     0.5   -1.3    2.5
H     0.1    0.0    1.3
H    -1.1   -1.1    1.9
N    -1.5    1.2    3.3
C    -2.4    1.6    2.1
C    -2.8    3.0    2.3
O    -2.8    3.6    3.4
H    -1.6    1.9    4.1
H    -1.8    1.4    1.2
C    -3.6    0.6    2.0
C    -4.8    1.0    2.8
C    -4.7    0.9    4.4
N    -5.9    1.3    5.1
C    -6.4    2.6    5.2
N    -7.7    2.6    5.6
N    -5.8    3.7    4.9
H    -3.3   -0.4    2.2
H    -3.9    0.6    0.9
H    -5.7    0.3    2.5
H    -5.2    2.0    2.5
H    -3.9    1.6    4.7
H    -4.4   -0.1    4.7
H    -6.7    0.6    5.0
H    -8.0    3.6    5.8
H    -7.9    2.0    6.4
H    -4.8    3.5    4.5
N    -3.3    3.6    1.2
C    -3.9    4.9    1.2
H    -3.3    3.1    0.3
H    -4.6    5.0    2.0
H    -4.4    5.1    0.2
H    -3.1    5.7    1.4
