          35
 sphere cut out from bulk 
C     1.4   -2.6    0.4
C     1.7   -1.6    1.4
O     2.7   -1.6    2.1
H     2.1   -2.5   -0.5
H     0.4   -2.6   -0.0
H     1.6   -3.6    0.8
N     0.8   -0.6    1.5
C     1.0    0.7    2.3
C     0.9    0.4    3.8
O     1.4    1.2    4.6
H     0.0   -0.5    0.8
H     2.0    0.9    2.2
C     0.1    1.8    1.8
C     0.3    3.2    2.3
C    -0.6    3.5    3.5
N    -0.3    4.8    4.1
C     0.8    5.1    5.0
N     1.8    4.2    5.1
N     0.9    6.2    5.6
H    -1.0    1.5    1.9
H     0.2    1.8    0.7
H     0.1    3.9    1.5
H     1.4    3.3    2.5
H    -0.4    2.7    4.3
H    -1.6    3.5    3.3
H    -1.0    5.5    4.2
H     2.4    4.4    5.8
H     1.6    3.2    4.9
H     0.1    6.9    5.4
N     0.1   -0.6    4.2
C    -0.1   -1.0    5.6
H    -0.2   -1.2    3.5
H    -1.2   -1.2    5.8
H     0.2   -0.1    6.2
H     0.5   -1.9    5.8
