          35
 sphere cut out from bulk 
C    -0.2   -0.0   -0.1
C    -0.2   -0.2    1.4
O     0.9   -0.5    2.0
H    -1.3   -0.1   -0.5
H     0.4   -0.8   -0.5
H     0.2    1.0   -0.3
N    -1.3    0.1    2.1
C    -1.4    0.3    3.5
C    -0.8    1.7    3.9
O    -0.1    2.3    3.1
H    -2.1    0.5    1.6
H    -2.5    0.4    3.7
C    -1.0   -1.0    4.3
C     0.1   -1.0    5.4
C     1.6   -0.8    5.0
N     2.0    0.6    4.7
C     2.0    1.6    5.6
N     2.1    1.2    7.0
N     2.0    2.9    5.4
H    -0.7   -1.7    3.6
H    -1.9   -1.4    4.8
H     0.0   -1.9    5.9
H    -0.1   -0.2    6.2
H     1.8   -1.4    4.1
H     2.2   -1.2    5.8
H     1.8    0.9    3.8
H     2.4    2.0    7.5
H     2.6    0.4    7.2
H     1.9    3.0    4.4
N    -1.0    2.2    5.1
C    -1.9    1.7    6.2
H    -0.4    3.0    5.4
H    -2.6    2.5    6.5
H    -1.3    1.4    7.1
H    -2.5    0.8    5.9
