          35
 sphere cut out from bulk 
C    -1.6    1.4    1.0
C    -1.2    0.6    2.2
O    -0.7    1.1    3.2
H    -2.1    0.8    0.2
H    -0.7    1.8    0.6
H    -2.3    2.2    1.3
N    -1.6   -0.7    2.2
C    -1.3   -1.6    3.4
C     0.1   -2.2    3.2
O     0.3   -3.4    2.9
H    -1.9   -1.1    1.4
H    -1.3   -0.9    4.2
C    -2.4   -2.7    3.5
C    -3.8   -2.1    3.7
C    -4.0   -1.1    4.8
N    -5.3   -0.7    4.9
C    -5.8    0.3    5.8
N    -4.8    1.2    6.2
N    -7.0    0.1    6.3
H    -2.1   -3.3    4.4
H    -2.3   -3.4    2.7
H    -4.5   -3.0    3.8
H    -4.1   -1.6    2.8
H    -3.3   -0.3    4.7
H    -3.6   -1.6    5.8
H    -6.0   -1.4    4.8
H    -5.2    2.0    6.7
H    -4.2    1.5    5.5
H    -7.2    0.9    6.9
N     1.1   -1.3    3.5
C     2.5   -1.6    3.4
H     0.8   -0.4    3.7
H     3.0   -1.1    2.5
H     2.6   -2.7    3.2
H     3.1   -1.4    4.3
