          35
 sphere cut out from bulk 
C     0.6    0.3    1.2
C     0.1    0.5    2.6
O     0.8    0.7    3.5
H     0.7   -0.7    0.9
H     1.7    0.7    1.2
H     0.0    0.8    0.4
N    -1.3    0.3    2.8
C    -2.4    0.0    1.8
C    -2.0   -1.2    0.9
O    -1.9   -1.2   -0.3
H    -1.6    0.4    3.7
H    -3.2   -0.2    2.4
C    -2.8    1.2    0.9
C    -4.3    1.3    0.6
C    -4.8    0.3   -0.3
N    -6.3    0.5   -0.6
C    -6.7    1.4   -1.5
N    -8.1    1.6   -1.6
N    -5.8    2.1   -2.2
H    -2.2    1.2   -0.0
H    -2.4    2.1    1.4
H    -4.5    2.3    0.2
H    -4.8    1.3    1.6
H    -4.8   -0.7    0.1
H    -4.3    0.3   -1.2
H    -6.9    0.3    0.2
H    -8.4    2.1   -2.3
H    -8.6    0.7   -1.5
H    -6.2    2.7   -2.9
N    -1.9   -2.4    1.6
C    -1.9   -2.7    3.0
H    -1.6   -3.2    1.0
H    -1.0   -2.4    3.6
H    -2.8   -2.2    3.5
H    -2.1   -3.8    3.2
