          35
 sphere cut out from bulk 
C     0.3    0.5   -0.2
C     0.1    0.7    1.3
O     0.7    1.5    1.9
H     0.1    1.5   -0.7
H    -0.3   -0.3   -0.7
H     1.4    0.2   -0.4
N    -0.9   -0.1    1.8
C    -1.1   -0.1    3.3
C    -1.7   -1.5    3.6
O    -2.1   -2.2    2.8
H    -1.3   -0.9    1.3
H    -0.2    0.1    3.8
C    -2.1    1.0    3.7
C    -3.5    0.9    3.1
C    -4.4    2.1    3.5
N    -5.7    2.1    2.9
C    -6.7    1.1    3.2
N    -6.7    0.7    4.5
N    -7.5    0.8    2.3
H    -1.6    2.0    3.4
H    -2.2    1.0    4.8
H    -4.0   -0.0    3.4
H    -3.4    0.9    2.0
H    -3.9    3.0    3.2
H    -4.5    2.2    4.6
H    -5.8    2.3    1.9
H    -7.1   -0.2    4.7
H    -5.8    0.8    5.1
H    -8.3    0.2    2.6
N    -1.6   -1.9    4.9
C    -1.1   -1.2    6.1
H    -2.1   -2.8    5.1
H    -0.7   -1.9    6.8
H    -1.8   -0.6    6.6
H    -0.2   -0.5    5.8
