          35
 sphere cut out from bulk 
C     0.6    0.8    1.1
C     0.0    0.8    2.6
O     0.7    0.9    3.5
H     1.6    0.8    1.2
H     0.2    1.7    0.6
H     0.2   -0.1    0.6
N    -1.4    0.8    2.7
C    -2.4    0.5    1.7
C    -3.0    1.7    1.0
O    -3.7    1.6    0.0
H    -1.7    0.7    3.7
H    -1.9   -0.1    0.9
C    -3.5   -0.4    2.3
C    -3.1   -1.9    2.5
C    -3.3   -2.9    1.4
N    -2.5   -2.8    0.2
C    -2.5   -1.7   -0.7
N    -3.7   -1.3   -1.1
N    -1.4   -1.2   -1.1
H    -4.3   -0.4    1.6
H    -3.8    0.1    3.2
H    -3.7   -2.2    3.4
H    -2.0   -1.9    2.9
H    -4.4   -2.8    1.1
H    -3.2   -3.9    1.8
H    -1.5   -3.0    0.4
H    -3.9   -0.3   -1.1
H    -4.5   -1.8   -0.7
H    -1.5   -0.6   -1.9
N    -2.6    2.9    1.5
C    -3.0    4.2    0.9
H    -1.9    2.9    2.3
H    -2.2    4.7    0.5
H    -3.6    4.8    1.7
H    -3.7    3.9    0.1
