          35
 sphere cut out from bulk 
C    -3.0   -1.4   -0.6
C    -2.0   -0.5    0.0
O    -1.2    0.2   -0.6
H    -2.9   -1.3   -1.7
H    -4.0   -1.2   -0.3
H    -2.8   -2.5   -0.3
N    -2.0   -0.3    1.4
C    -2.8   -1.2    2.4
C    -4.3   -0.8    2.4
O    -5.1   -1.6    2.8
H    -1.3    0.2    1.8
H    -2.8   -2.2    2.1
C    -2.1   -1.1    3.7
C    -2.8   -1.8    4.9
C    -3.8   -1.0    5.7
N    -4.5   -1.7    6.8
C    -5.4   -2.7    6.6
N    -6.2   -2.6    5.4
N    -5.6   -3.5    7.6
H    -2.0    0.0    4.0
H    -1.1   -1.4    3.6
H    -2.0   -2.2    5.6
H    -3.2   -2.7    4.5
H    -4.5   -0.6    5.0
H    -3.3   -0.1    6.1
H    -3.9   -1.9    7.6
H    -6.7   -3.4    5.2
H    -5.8   -2.2    4.6
H    -6.4   -4.1    7.4
N    -4.5    0.5    2.1
C    -5.9    1.1    2.2
H    -3.8    1.1    1.8
H    -5.9    1.9    2.9
H    -6.6    0.3    2.6
H    -6.2    1.4    1.2
