          35
 sphere cut out from bulk 
C     0.1   -0.1    0.1
C     0.1    0.0    1.6
O     1.2    0.1    2.3
H     1.1   -0.0   -0.2
H    -0.4    0.8   -0.3
H    -0.4   -0.9   -0.2
N    -1.1   -0.0    2.3
C    -2.4   -0.1    1.8
C    -3.2    1.0    2.5
O    -3.1    1.2    3.7
H    -1.0    0.1    3.3
H    -2.4    0.1    0.7
C    -3.1   -1.4    2.0
C    -2.4   -2.6    1.3
C    -3.0   -3.9    1.6
N    -2.5   -5.1    0.9
C    -2.9   -5.3   -0.4
N    -2.1   -6.3   -1.0
N    -3.8   -4.7   -1.1
H    -4.2   -1.4    1.7
H    -3.1   -1.6    3.1
H    -1.4   -2.6    1.6
H    -2.5   -2.4    0.2
H    -4.1   -3.9    1.5
H    -2.9   -4.2    2.7
H    -1.6   -5.3    1.1
H    -2.5   -6.6   -1.9
H    -1.9   -7.1   -0.4
H    -4.2   -4.0   -0.6
N    -4.1    1.7    1.7
C    -5.0    2.7    2.2
H    -4.2    1.5    0.7
H    -4.9    3.7    1.8
H    -4.8    2.8    3.3
H    -6.1    2.4    2.1
