          35
 sphere cut out from bulk 
C    -1.0    1.2   -0.0
C    -0.7    0.7    1.3
O     0.4    0.2    1.6
H    -0.5    0.7   -0.8
H    -0.7    2.3   -0.1
H    -2.1    1.2   -0.3
N    -1.8    0.7    2.2
C    -1.7    0.0    3.5
C    -2.9   -0.9    3.6
O    -4.0   -0.6    3.0
H    -2.7    0.8    1.9
H    -0.8   -0.6    3.5
C    -1.7    1.0    4.7
C    -0.3    1.6    5.1
C     0.3    2.5    4.1
N    -0.5    3.6    3.7
C    -0.4    4.2    2.5
N    -1.3    5.3    2.4
N     0.3    4.0    1.5
H    -2.1    0.5    5.6
H    -2.4    1.8    4.5
H     0.4    0.8    5.3
H    -0.5    2.1    6.1
H     0.6    1.9    3.2
H     1.3    2.8    4.5
H    -0.8    4.2    4.5
H    -1.3    5.7    1.5
H    -2.2    5.2    2.8
H     1.0    3.2    1.7
N    -2.8   -2.0    4.4
C    -1.6   -2.5    5.1
H    -3.7   -2.5    4.5
H    -1.9   -3.4    5.6
H    -1.3   -1.8    5.9
H    -0.8   -2.6    4.4
