          35
 sphere cut out from bulk 
C     0.3    1.0    0.9
C     0.2   -0.1    2.0
O     1.1   -0.3    2.8
H     1.3    1.4    0.9
H    -0.4    1.8    1.0
H     0.1    0.6   -0.1
N    -1.0   -0.8    2.0
C    -2.2   -0.6    1.2
C    -2.9    0.8    1.5
O    -3.3    1.4    0.5
H    -1.0   -1.4    2.8
H    -1.9   -0.5    0.2
C    -3.1   -1.8    1.4
C    -4.5   -1.7    0.7
C    -5.3   -3.0    0.8
N    -6.7   -2.9    0.3
C    -7.7   -2.3    1.1
N    -8.8   -2.1    0.3
N    -7.6   -1.9    2.3
H    -3.3   -1.9    2.5
H    -2.6   -2.7    1.1
H    -4.3   -1.4   -0.4
H    -5.1   -0.8    1.1
H    -5.3   -3.3    1.9
H    -4.8   -3.8    0.3
H    -6.8   -2.7   -0.7
H    -9.6   -1.8    0.9
H    -9.1   -2.9   -0.2
H    -6.7   -1.9    2.7
N    -3.1    1.2    2.8
C    -2.8    0.6    4.0
H    -3.6    2.1    2.8
H    -3.1   -0.4    4.1
H    -3.3    1.2    4.8
H    -1.7    0.7    4.2
