          35
 sphere cut out from bulk 
C     0.5    0.3    0.4
C     0.4   -0.0    1.9
O     1.4   -0.4    2.5
H    -0.5    0.7    0.0
H     0.8   -0.6   -0.1
H     1.3    1.1    0.3
N    -0.8    0.1    2.5
C    -1.2   -0.2    3.9
C    -0.7    0.7    5.0
O    -1.4    1.1    5.8
H    -1.6    0.5    1.9
H    -2.3   -0.1    3.9
C    -0.9   -1.7    4.2
C    -1.6   -2.8    3.2
C    -3.1   -2.7    3.1
N    -3.7   -3.8    2.3
C    -3.6   -5.1    2.7
N    -3.7   -5.3    4.1
N    -3.5   -6.1    1.9
H    -1.4   -1.9    5.2
H     0.1   -1.9    4.3
H    -1.3   -3.8    3.6
H    -1.1   -2.6    2.2
H    -3.4   -1.8    2.7
H    -3.5   -2.7    4.2
H    -3.5   -3.6    1.3
H    -3.8   -6.3    4.3
H    -4.4   -4.8    4.6
H    -3.3   -5.8    0.9
N     0.7    0.9    4.9
C     1.3    1.7    5.9
H     1.2    0.4    4.2
H     1.9    2.5    5.5
H     2.0    1.1    6.6
H     0.6    2.2    6.6
