          35
 sphere cut out from bulk 
C    -1.1   -0.4   -0.4
C    -0.6   -0.5    1.0
O     0.6   -0.9    1.3
H    -0.3   -0.7   -1.1
H    -1.4    0.7   -0.7
H    -2.0   -1.0   -0.5
N    -1.4   -0.0    2.0
C    -2.8    0.4    1.9
C    -2.9    1.9    1.3
O    -4.0    2.2    0.8
H    -1.0   -0.2    3.0
H    -3.3   -0.2    1.2
C    -3.4    0.3    3.3
C    -4.9    0.8    3.4
C    -5.9   -0.1    2.5
N    -7.3    0.3    2.7
C    -8.0   -0.2    3.9
N    -9.2    0.4    4.0
N    -7.4   -1.0    4.7
H    -2.8    0.9    4.0
H    -3.4   -0.7    3.6
H    -5.0    1.8    3.2
H    -5.2    0.7    4.5
H    -5.8   -1.1    2.8
H    -5.7    0.1    1.5
H    -7.6    1.2    2.4
H    -9.8   -0.1    4.7
H    -9.7    0.5    3.1
H    -8.1   -1.3    5.4
N    -1.9    2.7    1.6
C    -1.9    4.1    1.1
H    -1.1    2.3    2.0
H    -1.1    4.2    0.4
H    -1.7    4.7    1.9
H    -2.8    4.3    0.7
