          35
 sphere cut out from bulk 
C    -0.6    1.2    0.8
C    -0.3    0.3    2.0
O     0.7    0.5    2.7
H    -0.3    0.8   -0.1
H    -0.1    2.1    0.9
H    -1.7    1.5    0.7
N    -1.2   -0.7    2.3
C    -2.4   -1.1    1.6
C    -3.2   -2.0    2.6
O    -2.6   -2.5    3.5
H    -1.0   -1.3    3.1
H    -3.0   -0.2    1.4
C    -2.2   -1.8    0.2
C    -1.1   -2.8    0.1
C    -1.2   -4.0    1.0
N    -2.6   -4.7    0.8
C    -3.1   -5.6    1.7
N    -2.7   -5.5    3.0
N    -4.0   -6.5    1.4
H    -2.0   -0.9   -0.5
H    -3.2   -2.2   -0.1
H    -0.1   -2.3    0.4
H    -1.0   -3.1   -0.9
H    -1.1   -3.8    2.0
H    -0.4   -4.8    0.7
H    -2.8   -4.9   -0.2
H    -3.3   -6.1    3.6
H    -2.6   -4.5    3.4
H    -4.2   -6.5    0.3
N    -4.5   -2.1    2.3
C    -5.4   -3.0    3.0
H    -4.9   -1.7    1.4
H    -6.4   -2.6    3.1
H    -5.0   -3.2    4.0
H    -5.4   -4.0    2.5
