          35
 sphere cut out from bulk 
C    -2.3    1.1    0.3
C    -2.3    1.0    1.8
O    -3.3    1.2    2.5
H    -1.3    1.3   -0.1
H    -3.0    1.9    0.0
H    -2.7    0.2   -0.2
N    -1.1    0.6    2.3
C    -1.0    0.3    3.8
C    -0.7    1.6    4.6
O     0.3    1.8    5.1
H    -0.3    0.4    1.7
H    -1.9   -0.1    4.1
C     0.1   -0.7    4.0
C    -0.2   -2.2    3.6
C     0.5   -2.7    2.3
N    -0.2   -2.4    1.0
C     0.2   -1.4    0.1
N    -0.4   -1.6   -1.1
N     0.9   -0.5    0.5
H     0.3   -0.7    5.1
H     1.1   -0.4    3.5
H    -1.3   -2.3    3.5
H     0.2   -2.9    4.3
H     0.6   -3.8    2.3
H     1.5   -2.2    2.2
H    -1.0   -3.0    0.8
H    -0.1   -0.9   -1.9
H    -0.4   -2.6   -1.5
H     1.2    0.1   -0.3
N    -1.8    2.4    4.6
C    -1.8    3.7    5.2
H    -2.6    2.1    4.0
H    -2.6    3.8    5.9
H    -1.8    4.5    4.5
H    -0.9    3.8    5.8
