          35
 sphere cut out from bulk 
C     1.0    0.4    3.0
C    -0.1   -0.2    3.8
O     0.1   -0.8    4.9
H     0.6    0.8    2.0
H     1.8   -0.3    2.8
H     1.4    1.2    3.6
N    -1.4   -0.2    3.3
C    -2.5   -0.8    4.0
C    -2.6   -2.3    3.7
O    -3.4   -2.8    2.9
H    -1.5    0.1    2.3
H    -2.3   -0.6    5.0
C    -3.8   -0.0    3.6
C    -5.0   -0.4    4.4
C    -4.9   -0.1    5.9
N    -4.5    1.3    6.2
C    -5.4    2.3    6.6
N    -6.7    2.1    6.2
N    -5.1    3.4    7.3
H    -4.0   -0.2    2.5
H    -3.6    1.1    3.7
H    -5.3   -1.4    4.3
H    -5.9    0.2    4.0
H    -4.2   -0.8    6.4
H    -5.9   -0.3    6.4
H    -3.6    1.4    6.6
H    -6.8    1.7    5.3
H    -7.3    2.9    6.4
H    -4.1    3.3    7.6
N    -1.8   -3.0    4.4
C    -1.6   -4.5    4.3
H    -1.0   -2.5    5.0
H    -0.7   -4.7    3.7
H    -2.5   -4.8    3.8
H    -1.5   -5.0    5.2
