          35
 sphere cut out from bulk 
C    -0.5    0.2    0.1
C    -0.4   -0.1    1.5
O     0.7   -0.3    2.1
H    -1.5   -0.1   -0.4
H     0.3   -0.3   -0.5
H    -0.4    1.2   -0.1
N    -1.6   -0.2    2.3
C    -2.9    0.1    2.0
C    -3.6   -0.9    1.0
O    -4.6   -0.7    0.4
H    -1.3   -0.3    3.3
H    -3.5   -0.1    2.9
C    -3.2    1.5    1.5
C    -2.9    2.6    2.5
C    -1.5    3.0    2.7
N    -1.2    4.2    3.5
C    -1.4    5.5    2.9
N    -1.3    6.5    3.8
N    -1.7    5.6    1.6
H    -4.3    1.5    1.2
H    -2.7    1.7    0.6
H    -3.4    2.4    3.5
H    -3.5    3.5    2.2
H    -1.0    3.2    1.7
H    -0.9    2.2    3.2
H    -1.5    4.2    4.4
H    -1.3    7.4    3.4
H    -0.6    6.4    4.5
H    -1.7    6.5    1.3
N    -3.0   -2.2    1.0
C    -3.5   -3.3    0.2
H    -2.1   -2.3    1.5
H    -4.4   -2.9   -0.3
H    -3.7   -4.1    0.8
H    -2.8   -3.6   -0.6
