          35
 sphere cut out from bulk 
C    -0.5    1.1    3.0
C    -0.7   -0.2    3.8
O    -0.0   -0.4    4.8
H     0.4    1.6    3.3
H    -1.3    1.8    3.2
H    -0.5    0.9    1.9
N    -1.6   -1.1    3.4
C    -2.5   -0.9    2.3
C    -3.7    0.1    2.5
O    -4.0    0.8    1.5
H    -1.7   -1.9    4.0
H    -2.0   -0.5    1.4
C    -3.1   -2.3    1.9
C    -4.2   -2.3    0.8
C    -3.7   -2.0   -0.7
N    -3.0   -0.8   -0.8
C    -1.6   -0.7   -1.1
N    -1.2   -1.7   -2.0
N    -0.9    0.2   -0.5
H    -3.5   -2.7    2.8
H    -2.3   -2.9    1.6
H    -4.7   -3.3    0.8
H    -5.0   -1.6    1.0
H    -4.6   -2.1   -1.3
H    -3.0   -2.9   -0.9
H    -3.3   -0.0   -0.2
H    -1.8   -1.9   -2.8
H    -0.2   -1.6   -2.2
H     0.0    0.2   -0.9
N    -4.2    0.3    3.7
C    -4.0   -0.3    5.0
H    -4.9    1.1    3.7
H    -4.8   -0.1    5.6
H    -3.1   -0.1    5.5
H    -4.0   -1.4    4.8
