          35
 sphere cut out from bulk 
C     0.1   -0.6   -1.0
C    -0.1    0.5    0.1
O     0.6    1.5    0.1
H     0.9   -0.2   -1.6
H    -0.8   -0.7   -1.6
H     0.4   -1.5   -0.5
N    -1.2    0.4    1.0
C    -2.2   -0.6    1.3
C    -2.0   -1.1    2.8
O    -3.0   -0.9    3.6
H    -1.2    1.2    1.6
H    -3.2   -0.1    1.4
C    -2.4   -1.8    0.4
C    -3.5   -2.8    0.9
C    -3.8   -3.9   -0.2
N    -4.6   -4.9    0.3
C    -4.1   -6.0    1.1
N    -5.2   -6.8    1.6
N    -2.9   -6.2    1.4
H    -1.4   -2.4    0.3
H    -2.6   -1.4   -0.6
H    -4.4   -2.2    1.1
H    -3.2   -3.2    1.8
H    -2.8   -4.3   -0.5
H    -4.2   -3.4   -1.1
H    -5.6   -4.7    0.5
H    -4.8   -7.6    2.1
H    -5.9   -7.0    0.9
H    -2.3   -5.5    1.2
N    -0.8   -1.6    3.2
C     0.4   -1.8    2.5
H    -0.8   -1.8    4.2
H     1.1   -2.4    3.2
H     0.9   -0.9    2.3
H     0.3   -2.4    1.6
