          35
 sphere cut out from bulk 
C    -4.3    1.7    1.1
C    -2.9    1.2    1.6
O    -1.9    1.4    0.9
H    -5.1    1.4    1.7
H    -4.4    1.2    0.1
H    -4.2    2.7    0.9
N    -2.9    0.6    2.8
C    -1.7    0.0    3.4
C    -2.1   -1.3    4.0
O    -3.3   -1.5    4.4
H    -3.8    0.3    3.2
H    -1.0   -0.1    2.6
C    -1.1    0.9    4.5
C    -0.7    2.3    4.0
C     0.5    2.3    3.0
N     0.9    3.6    2.5
C     1.4    4.6    3.3
N     2.3    4.2    4.3
N     1.2    5.8    3.0
H    -0.2    0.4    4.9
H    -1.8    1.0    5.3
H    -0.4    2.9    4.9
H    -1.5    2.8    3.5
H     0.3    1.7    2.1
H     1.4    1.8    3.5
H     0.3    4.0    1.8
H     2.3    4.8    5.1
H     2.2    3.2    4.6
H     1.7    6.5    3.6
N    -1.2   -2.2    4.1
C    -1.4   -3.5    4.7
H    -0.3   -2.0    3.7
H    -2.4   -3.6    5.1
H    -0.7   -3.7    5.6
H    -1.2   -4.3    4.0
