          35
 sphere cut out from bulk 
C    -0.6    1.4    0.1
C    -0.4    1.0    1.5
O     0.7    1.2    2.1
H     0.4    1.7   -0.3
H    -1.3    2.3   -0.0
H    -1.0    0.6   -0.5
N    -1.5    0.5    2.3
C    -2.9    0.1    2.0
C    -3.1   -1.3    2.5
O    -4.1   -1.6    3.2
H    -1.1    0.4    3.2
H    -3.5    0.7    2.8
C    -3.4    0.4    0.7
C    -5.0    0.3    0.6
C    -5.5    0.6   -0.8
N    -5.1    1.8   -1.4
C    -5.1    3.0   -0.8
N    -6.3    3.3   -0.2
N    -4.0    3.8   -0.8
H    -3.0   -0.3   -0.1
H    -3.2    1.4    0.4
H    -5.3   -0.7    1.0
H    -5.4    1.1    1.3
H    -6.7    0.6   -0.7
H    -5.3   -0.3   -1.4
H    -4.1    1.7   -1.9
H    -6.4    4.3    0.1
H    -7.2    3.0   -0.7
H    -4.2    4.7   -0.5
N    -2.3   -2.3    2.0
C    -1.1   -2.3    1.1
H    -2.6   -3.2    2.4
H    -0.9   -3.3    0.8
H    -0.3   -1.9    1.7
H    -1.3   -1.7    0.3
