          35
 sphere cut out from bulk 
C     0.2    0.7    0.2
C     0.1   -0.2    1.4
O     1.0   -0.6    2.0
H    -0.6    0.6   -0.6
H     1.2    0.6   -0.3
H     0.2    1.8    0.5
N    -1.2   -0.6    1.7
C    -1.6   -1.2    2.9
C    -1.5   -2.8    2.9
O    -1.2   -3.4    3.9
H    -2.0   -0.1    1.1
H    -0.8   -1.0    3.6
C    -3.0   -0.8    3.4
C    -3.0    0.7    3.8
C    -2.2    1.0    5.1
N    -1.2    2.1    5.0
C    -0.1    1.8    4.2
N     0.7    0.8    4.7
N     0.2    2.6    3.2
H    -3.2   -1.5    4.2
H    -3.7   -1.0    2.6
H    -4.1    0.9    4.0
H    -2.6    1.3    3.0
H    -1.7    0.1    5.5
H    -2.9    1.3    5.9
H    -1.6    2.9    4.7
H     1.2    0.3    4.0
H     0.4    0.3    5.5
H     1.2    2.5    2.9
N    -1.8   -3.5    1.7
C    -2.2   -3.0    0.4
H    -1.7   -4.5    1.9
H    -2.6   -3.9   -0.1
H    -1.4   -2.6   -0.2
H    -3.1   -2.3    0.5
