          35
 sphere cut out from bulk 
C    -0.5    1.0   -0.3
C    -0.7    1.3    1.1
O    -0.6    2.5    1.6
H    -1.2    1.6   -0.9
H    -0.6   -0.0   -0.6
H     0.5    1.4   -0.7
N    -1.0    0.2    1.9
C    -1.1    0.4    3.4
C    -0.7   -1.0    4.0
O    -1.0   -2.0    3.5
H    -1.1   -0.7    1.5
H    -0.5    1.2    3.7
C    -2.6    0.7    3.7
C    -3.0    0.9    5.2
C    -2.1    1.9    6.0
N    -1.4    2.9    5.3
C    -0.1    2.9    5.1
N     0.3    3.9    4.2
N     0.7    2.1    5.7
H    -3.3   -0.0    3.2
H    -2.8    1.7    3.1
H    -3.0   -0.1    5.7
H    -4.0    1.2    5.2
H    -1.3    1.3    6.5
H    -2.8    2.3    6.8
H    -2.0    3.6    4.8
H     1.3    3.9    4.0
H    -0.1    3.8    3.3
H     1.7    2.2    5.4
N    -0.1   -0.8    5.2
C     0.4   -1.9    6.0
H     0.2    0.1    5.5
H     0.2   -1.8    7.0
H     1.5   -2.1    5.9
H    -0.1   -2.8    5.6
