          35
 sphere cut out from bulk 
C     0.7    0.7    1.5
C    -0.1   -0.5    2.1
O     0.5   -1.4    2.5
H     0.5    1.6    2.1
H     0.3    0.9    0.4
H     1.7    0.5    1.4
N    -1.4   -0.4    2.1
C    -2.3    0.7    1.8
C    -3.2    1.0    3.0
O    -3.6    0.0    3.7
H    -1.9   -1.1    2.7
H    -1.7    1.6    1.6
C    -3.2    0.4    0.6
C    -2.4    0.2   -0.7
C    -3.2   -0.1   -1.9
N    -3.9   -1.4   -1.9
C    -5.2   -1.6   -1.3
N    -6.0   -0.5   -1.5
N    -5.6   -2.6   -0.6
H    -3.9    1.3    0.4
H    -3.8   -0.5    0.8
H    -1.6   -0.6   -0.5
H    -1.8    1.1   -0.9
H    -2.5   -0.2   -2.8
H    -3.9    0.7   -2.1
H    -3.3   -2.2   -1.7
H    -7.0   -0.7   -1.2
H    -6.0   -0.1   -2.5
H    -4.9   -3.2   -0.4
N    -3.7    2.2    3.2
C    -4.6    2.6    4.2
H    -3.3    3.0    2.5
H    -4.2    3.4    4.9
H    -4.9    1.8    4.8
H    -5.5    3.0    3.7
