          35
 sphere cut out from bulk 
C    -1.4    0.0   -0.8
C    -2.0    0.1    0.6
O    -2.1   -0.9    1.3
H    -1.7   -0.9   -1.2
H    -0.3    0.1   -0.7
H    -1.8    0.8   -1.5
N    -2.4    1.4    0.9
C    -2.6    1.9    2.3
C    -1.2    2.2    2.9
O    -0.2    1.6    2.5
H    -2.2    2.1    0.3
H    -3.1    2.8    2.2
C    -3.5    1.0    3.3
C    -5.0    0.9    2.9
C    -5.4   -0.0    1.8
N    -5.0   -1.4    2.0
C    -5.4   -2.2    3.1
N    -6.7   -1.9    3.5
N    -4.7   -3.1    3.7
H    -3.4    1.4    4.3
H    -3.0    0.0    3.3
H    -5.3    1.9    2.7
H    -5.5    0.6    3.9
H    -4.9    0.3    0.8
H    -6.5    0.0    1.7
H    -4.0   -1.6    1.8
H    -7.0   -2.6    4.1
H    -7.4   -1.8    2.7
H    -3.7   -3.1    3.4
N    -1.2    3.1    4.0
C    -2.2    4.0    4.4
H    -0.2    3.2    4.3
H    -1.8    4.7    5.2
H    -3.0    3.4    4.9
H    -2.6    4.6    3.6
