          35
 sphere cut out from bulk 
C     0.9   -0.4   -0.2
C     0.5    0.2    1.2
O     1.4    0.8    1.8
H     1.6   -1.2   -0.1
H     1.3    0.4   -0.8
H    -0.0   -0.8   -0.7
N    -0.7   -0.1    1.6
C    -1.2    0.3    3.0
C    -0.7    1.7    3.4
O    -0.2    1.9    4.5
H    -1.3   -0.7    1.1
H    -2.3    0.4    2.9
C    -1.0   -0.8    4.0
C     0.4   -1.6    4.0
C     1.5   -0.9    4.8
N     1.2   -0.9    6.2
C     1.7    0.0    7.1
N     1.9    1.3    6.6
N     2.0   -0.2    8.4
H    -1.8   -1.6    3.8
H    -1.1   -0.4    5.0
H     0.7   -1.7    3.0
H     0.2   -2.6    4.4
H     1.6    0.2    4.5
H     2.5   -1.4    4.6
H     1.2   -1.8    6.6
H     2.0    2.0    7.4
H     1.2    1.6    6.0
H     2.0   -1.2    8.6
N    -1.0    2.8    2.6
C    -1.6    2.8    1.3
H    -0.6    3.6    3.0
H    -2.0    3.8    1.1
H    -2.4    2.1    1.2
H    -0.8    2.6    0.5
