          35
 sphere cut out from bulk 
C    -0.5    0.9    0.1
C    -0.2    0.5    1.6
O     0.9    0.2    2.0
H    -0.0    0.2   -0.6
H     0.1    1.9    0.0
H    -1.5    1.1   -0.1
N    -1.3    0.3    2.3
C    -1.5   -0.1    3.7
C    -2.0    1.0    4.7
O    -3.0    0.9    5.3
H    -2.2    0.6    1.9
H    -2.4   -0.8    3.7
C    -0.4   -0.9    4.4
C    -0.1   -2.3    3.7
C     1.3   -2.8    4.0
N     2.4   -1.9    3.7
C     3.0   -1.1    4.6
N     3.2   -1.6    5.8
N     3.5    0.1    4.3
H    -0.7   -1.1    5.4
H     0.5   -0.3    4.4
H    -0.1   -2.1    2.6
H    -0.8   -3.0    3.9
H     1.4   -3.8    3.5
H     1.4   -3.0    5.1
H     2.2   -1.4    2.8
H     3.9   -1.1    6.4
H     3.6   -2.6    5.8
H     3.1    0.5    3.4
N    -1.2    2.1    4.8
C     0.0    2.5    4.1
H    -1.6    2.8    5.4
H     0.7    1.7    3.9
H     0.6    3.2    4.8
H    -0.1    3.1    3.2
