          35
 sphere cut out from bulk 
C    -0.6   -1.3   -0.3
C    -1.0   -1.1    1.2
O    -1.0   -2.1    2.0
H    -1.2   -2.0   -0.7
H     0.5   -1.7   -0.3
H    -0.6   -0.4   -0.9
N    -1.4    0.1    1.5
C    -2.0    0.7    2.8
C    -1.1    1.6    3.6
O    -1.6    2.6    4.1
H    -1.4    0.8    0.8
H    -2.7    1.4    2.4
C    -2.8   -0.3    3.6
C    -2.1   -1.2    4.7
C    -1.7   -0.5    6.0
N    -1.1   -1.5    6.9
C    -0.5   -1.1    8.1
N     0.2   -2.1    8.7
N    -0.5    0.1    8.6
H    -3.4   -1.0    2.9
H    -3.5    0.3    4.2
H    -1.2   -1.7    4.2
H    -2.8   -2.1    4.9
H    -2.6   -0.1    6.5
H    -1.0    0.3    5.8
H    -0.6   -2.2    6.4
H     0.5   -1.8    9.6
H    -0.3   -3.0    8.7
H    -1.0    0.8    8.0
N     0.3    1.3    3.7
C     1.1    0.1    3.3
H     0.8    2.0    4.2
H     1.8   -0.0    4.1
H     1.6    0.3    2.4
H     0.5   -0.8    3.3
