          35
 sphere cut out from bulk 
C     0.5    1.4    0.3
C     0.2    1.4    1.8
O     0.3    2.3    2.5
H     1.6    1.6    0.2
H    -0.0    2.2   -0.2
H     0.3    0.5   -0.2
N    -0.4    0.2    2.2
C    -0.8    0.0    3.6
C    -0.4   -1.4    4.0
O    -0.7   -2.4    3.2
H    -0.5   -0.6    1.6
H    -0.1    0.7    4.2
C    -2.2    0.3    3.9
C    -2.7    0.2    5.3
C    -3.3   -1.2    5.6
N    -3.7   -1.4    7.0
C    -4.8   -0.7    7.5
N    -5.9   -0.5    6.6
N    -5.0   -0.2    8.7
H    -2.8   -0.3    3.2
H    -2.4    1.4    3.5
H    -3.5    0.9    5.5
H    -1.9    0.5    6.0
H    -2.5   -2.0    5.5
H    -4.1   -1.4    5.0
H    -3.0   -1.4    7.7
H    -6.7   -0.1    7.1
H    -6.1   -1.2    6.0
H    -4.1   -0.3    9.3
N     0.2   -1.6    5.2
C     0.5   -3.0    5.7
H     0.4   -0.8    5.7
H    -0.0   -3.1    6.6
H     1.6   -3.0    5.9
H     0.2   -3.7    5.0
