          35
 sphere cut out from bulk 
C    -0.4    0.9   -0.6
C    -0.3    0.4    0.8
O     0.8    0.0    1.3
H     0.3    1.8   -0.7
H    -1.4    1.2   -0.9
H    -0.0    0.1   -1.3
N    -1.4    0.4    1.5
C    -1.5   -0.1    2.9
C    -1.6   -1.6    3.0
O    -2.7   -2.2    3.3
H    -2.3    0.6    1.1
H    -0.6    0.2    3.4
C    -2.7    0.7    3.6
C    -3.0    0.3    5.1
C    -1.8    0.2    6.1
N    -0.8   -0.7    5.8
C    -0.8   -2.0    6.3
N    -2.0   -2.7    6.2
N     0.3   -2.5    6.8
H    -3.6    0.5    3.0
H    -2.4    1.7    3.6
H    -3.5   -0.7    5.1
H    -3.7    1.0    5.5
H    -2.2    0.1    7.1
H    -1.3    1.2    6.1
H     0.2   -0.3    6.0
H    -2.0   -3.6    6.5
H    -2.5   -2.5    5.3
H     0.2   -3.5    7.0
N    -0.5   -2.2    2.7
C    -0.3   -3.7    2.8
H     0.3   -1.7    2.5
H     0.2   -4.1    1.9
H    -1.3   -4.1    2.9
H     0.2   -4.0    3.7
