          35
 sphere cut out from bulk 
C    -1.2   -1.3    1.0
C    -1.1   -0.3    2.2
O    -0.3   -0.4    3.1
H    -0.2   -1.7    0.9
H    -1.6   -0.8    0.1
H    -1.9   -2.1    1.3
N    -2.0    0.8    2.3
C    -3.0    1.3    1.4
C    -3.9    0.2    0.7
O    -4.0    0.2   -0.6
H    -1.8    1.3    3.1
H    -3.7    1.8    2.0
C    -2.4    2.4    0.4
C    -1.3    1.9   -0.5
C    -0.7    3.1   -1.3
N     0.4    2.8   -2.2
C     1.7    3.0   -1.9
N     2.0    3.2   -0.6
N     2.7    3.1   -2.8
H    -2.1    3.2    1.0
H    -3.3    2.7   -0.2
H    -1.6    1.1   -1.1
H    -0.4    1.5    0.1
H    -0.4    3.9   -0.6
H    -1.5    3.5   -1.9
H     0.2    2.6   -3.1
H     3.0    3.3   -0.4
H     1.6    2.6    0.1
H     2.3    3.1   -3.7
N    -4.5   -0.7    1.4
C    -4.6   -0.8    2.9
H    -5.1   -1.3    0.9
H    -5.5   -1.3    3.1
H    -4.7    0.2    3.4
H    -3.7   -1.3    3.3
