          35
 sphere cut out from bulk 
C    -0.3    1.5    4.5
C    -0.7    0.1    4.9
O     0.2   -0.7    5.3
H     0.2    1.5    3.6
H     0.4    1.9    5.3
H    -1.2    2.2    4.5
N    -2.0   -0.2    4.7
C    -2.5   -1.5    5.2
C    -2.5   -2.7    4.2
O    -2.8   -3.8    4.6
H    -2.7    0.5    4.7
H    -1.9   -1.8    6.1
C    -4.0   -1.3    5.7
C    -4.2   -0.2    6.8
C    -5.0    1.0    6.3
N    -4.3    1.8    5.2
C    -4.9    1.9    4.0
N    -4.2    2.9    3.2
N    -5.8    1.3    3.4
H    -4.3   -2.3    6.0
H    -4.6   -1.1    4.8
H    -3.2    0.1    7.2
H    -4.8   -0.7    7.6
H    -5.1    1.7    7.2
H    -6.0    0.7    6.0
H    -3.9    2.6    5.5
H    -3.2    3.0    3.3
H    -4.5    2.9    2.2
H    -6.3    0.6    4.1
N    -2.1   -2.4    3.0
C    -1.9   -3.3    1.9
H    -1.8   -1.4    2.8
H    -2.5   -3.1    1.0
H    -2.3   -4.3    2.3
H    -0.9   -3.5    1.6
