          35
 sphere cut out from bulk 
C     0.0    0.7    1.5
C    -0.2   -0.5    2.4
O     0.8   -1.2    2.8
H    -0.7    1.5    1.8
H    -0.1    0.5    0.5
H     1.1    1.0    1.6
N    -1.5   -0.9    2.7
C    -2.7   -0.5    2.0
C    -3.7    0.3    2.8
O    -4.3    1.3    2.3
H    -1.5   -1.7    3.3
H    -2.4    0.2    1.2
C    -3.3   -1.7    1.3
C    -2.4   -2.4    0.2
C    -1.8   -3.8    0.6
N    -1.0   -3.9    1.8
C    -1.5   -4.1    3.0
N    -2.7   -4.8    3.1
N    -0.9   -3.7    4.1
H    -4.2   -1.4    0.8
H    -3.6   -2.5    2.0
H    -1.5   -1.7    0.1
H    -2.9   -2.4   -0.7
H    -1.2   -4.2   -0.3
H    -2.7   -4.5    0.7
H    -0.1   -3.3    1.8
H    -2.8   -5.1    4.1
H    -2.8   -5.5    2.5
H    -0.1   -3.1    3.9
N    -4.1   -0.2    4.1
C    -3.6   -1.3    4.8
H    -4.8    0.4    4.5
H    -3.6   -2.2    4.2
H    -4.3   -1.5    5.7
H    -2.6   -1.1    5.3
