          35
 sphere cut out from bulk 
C    -0.7   -1.6    0.6
C    -0.5   -0.7    1.8
O     0.2    0.3    1.7
H    -1.1   -1.1   -0.2
H    -1.3   -2.5    0.8
H     0.3   -2.0    0.3
N    -1.1   -1.2    3.0
C    -0.8   -0.5    4.2
C    -1.0   -1.4    5.4
O    -0.1   -1.4    6.3
H    -1.4   -2.1    3.0
H     0.2   -0.1    4.2
C    -1.7    0.8    4.3
C    -1.4    1.6    5.7
C    -2.6    1.7    6.6
N    -3.4    0.5    6.8
C    -3.2   -0.4    7.9
N    -1.9   -0.2    8.6
N    -4.2   -1.1    8.2
H    -2.8    0.6    4.3
H    -1.4    1.4    3.5
H    -1.1    2.6    5.4
H    -0.6    1.1    6.2
H    -3.4    2.4    6.1
H    -2.3    2.2    7.5
H    -4.3    0.4    6.5
H    -1.1   -0.3    7.9
H    -1.8   -0.9    9.3
H    -3.9   -1.8    9.0
N    -2.0   -2.3    5.5
C    -3.3   -2.3    4.8
H    -2.0   -2.8    6.4
H    -4.1   -2.1    5.6
H    -3.5   -3.2    4.3
H    -3.4   -1.5    4.1
