          35
 sphere cut out from bulk 
C    -0.6    2.6    2.4
C    -0.6    1.1    2.4
O     0.3    0.4    1.9
H    -1.4    3.1    3.0
H    -0.6    2.9    1.4
H     0.4    2.9    2.8
N    -1.6    0.5    3.2
C    -1.8   -0.9    3.2
C    -3.3   -1.1    3.3
O    -4.0   -0.4    4.0
H    -2.3    1.1    3.6
H    -1.4   -1.4    2.3
C    -1.1   -1.5    4.5
C    -1.1   -3.0    4.6
C    -0.3   -3.6    5.8
N     1.1   -3.4    5.6
C     1.9   -2.8    6.6
N     1.3   -1.8    7.3
N     3.1   -3.2    6.7
H    -1.5   -1.1    5.4
H    -0.0   -1.2    4.4
H    -0.8   -3.5    3.6
H    -2.2   -3.4    4.7
H    -0.5   -4.7    5.8
H    -0.6   -3.1    6.7
H     1.6   -4.1    5.1
H     1.9   -1.2    7.9
H     0.7   -1.1    6.8
H     3.7   -2.6    7.4
N    -3.8   -2.2    2.6
C    -5.2   -2.6    2.6
H    -3.1   -2.8    2.1
H    -5.3   -3.6    3.1
H    -5.6   -2.6    1.6
H    -5.7   -1.9    3.3
