          35
 sphere cut out from bulk 
C     0.0    1.4    1.1
C     0.1    0.2    1.9
O     1.1   -0.1    2.7
H    -0.7    2.1    1.5
H    -0.2    1.2    0.1
H     1.0    1.9    1.1
N    -1.0   -0.7    1.9
C    -2.2   -0.5    1.2
C    -3.1    0.7    1.8
O    -3.6    1.5    1.0
H    -0.8   -1.5    2.5
H    -2.1   -0.2    0.2
C    -3.0   -1.8    1.2
C    -4.3   -1.7    0.4
C    -5.1   -3.0    0.5
N    -6.3   -3.1   -0.3
C    -6.2   -3.4   -1.7
N    -7.4   -3.3   -2.4
N    -5.1   -3.7   -2.2
H    -3.3   -2.1    2.3
H    -2.4   -2.6    0.8
H    -4.1   -1.5   -0.6
H    -5.0   -0.9    0.8
H    -5.4   -3.2    1.5
H    -4.5   -3.9    0.1
H    -7.1   -2.5   -0.1
H    -7.4   -3.1   -3.3
H    -8.2   -2.8   -1.9
H    -5.2   -4.0   -3.2
N    -3.2    0.9    3.1
C    -2.6    0.1    4.3
H    -3.8    1.7    3.4
H    -1.6    0.3    4.4
H    -2.8   -0.9    4.2
H    -3.1    0.5    5.2
