          35
 sphere cut out from bulk 
C    -1.2   -2.5   -0.1
C    -0.3   -1.6    0.6
O     0.9   -1.8    0.6
H    -0.7   -3.4   -0.5
H    -1.7   -2.0   -1.0
H    -2.1   -2.9    0.5
N    -0.8   -0.5    1.2
C    -2.2   -0.0    1.2
C    -2.3    1.1    0.1
O    -1.5    2.0    0.2
H    -0.1    0.1    1.6
H    -2.8   -0.9    0.9
C    -2.6    0.5    2.6
C    -4.1    0.9    2.7
C    -4.5    2.3    2.2
N    -3.7    3.4    2.9
C    -3.4    4.6    2.3
N    -2.9    4.5    1.0
N    -3.5    5.7    3.0
H    -2.4   -0.3    3.3
H    -2.0    1.4    2.8
H    -4.3    0.9    3.8
H    -4.7    0.2    2.2
H    -4.2    2.4    1.1
H    -5.5    2.5    2.3
H    -4.1    3.5    3.8
H    -2.4    3.7    0.8
H    -2.6    5.4    0.6
H    -3.1    6.5    2.5
N    -3.2    0.9   -0.9
C    -4.2   -0.0   -1.0
H    -3.2    1.7   -1.5
H    -3.9   -1.0   -0.9
H    -4.7    0.1   -2.0
H    -5.1    0.1   -0.3
