          35
 sphere cut out from bulk 
C    -0.1    0.4    0.0
C    -0.1    0.1    1.5
O     0.9   -0.3    2.1
H     0.2   -0.4   -0.6
H     0.7    1.2   -0.1
H    -1.1    0.8   -0.3
N    -1.3    0.2    2.1
C    -1.5   -0.2    3.5
C    -2.8   -1.1    3.6
O    -2.7   -2.3    4.1
H    -2.1    0.5    1.6
H    -0.7   -0.9    3.7
C    -1.5    0.9    4.5
C    -0.1    1.6    4.7
C     0.9    0.7    5.4
N     2.2    1.4    5.6
C     3.2    1.6    4.7
N     3.2    0.7    3.6
N     4.2    2.5    4.8
H    -1.8    0.5    5.5
H    -2.2    1.7    4.3
H    -0.2    2.5    5.3
H     0.3    1.9    3.7
H     1.2   -0.2    4.8
H     0.6    0.3    6.3
H     2.2    2.1    6.3
H     4.0    1.0    3.0
H     2.4    0.4    3.2
H     4.1    3.0    5.7
N    -4.0   -0.6    3.2
C    -4.4    0.7    3.0
H    -4.7   -1.3    3.4
H    -5.3    0.7    2.3
H    -3.6    1.4    2.6
H    -4.8    1.2    3.9
