          35
 sphere cut out from bulk 
C    -0.2   -1.9   -0.2
C     0.2   -1.0    1.0
O     1.4   -0.9    1.3
H    -0.8   -1.4   -0.9
H    -0.8   -2.8    0.2
H     0.7   -2.3   -0.6
N    -0.8   -0.4    1.7
C    -2.2   -0.5    1.6
C    -2.7   -1.9    1.8
O    -2.4   -2.5    2.9
H    -0.4    0.1    2.5
H    -2.6    0.0    2.5
C    -2.8    0.3    0.4
C    -2.4    1.8    0.4
C    -2.9    2.6    1.7
N    -4.3    2.5    1.9
C    -5.2    3.1    1.1
N    -6.6    2.8    1.5
N    -4.9    3.9    0.1
H    -3.9    0.3    0.4
H    -2.4   -0.1   -0.6
H    -2.8    2.3   -0.5
H    -1.3    1.9    0.4
H    -2.6    3.7    1.5
H    -2.4    2.3    2.6
H    -4.6    1.7    2.4
H    -7.3    3.4    1.0
H    -6.7    2.8    2.5
H    -5.7    4.3   -0.3
N    -3.5   -2.6    0.9
C    -3.9   -2.4   -0.5
H    -3.8   -3.5    1.3
H    -4.3   -3.3   -0.8
H    -3.0   -2.2   -1.1
H    -4.6   -1.6   -0.6
