          35
 sphere cut out from bulk 
C     0.2   -1.2    0.4
C     0.2   -0.2    1.5
O     1.2    0.4    1.8
H    -0.6   -0.9   -0.4
H    -0.1   -2.2    0.7
H     1.1   -1.2   -0.1
N    -1.0    0.1    2.2
C    -2.3   -0.4    1.8
C    -3.2    0.8    1.6
O    -3.1    1.8    2.3
H    -1.0    0.8    2.8
H    -2.3   -1.0    0.9
C    -3.0   -1.3    2.9
C    -2.4   -2.7    3.1
C    -1.1   -2.8    3.8
N    -0.6   -4.2    4.0
C    -0.1   -4.9    2.9
N     0.2   -6.2    3.3
N     0.0   -4.4    1.7
H    -4.1   -1.4    2.7
H    -2.9   -0.7    3.9
H    -2.4   -3.2    2.1
H    -3.1   -3.3    3.6
H    -1.1   -2.3    4.7
H    -0.3   -2.3    3.2
H    -1.1   -4.7    4.7
H     0.7   -6.8    2.6
H     0.6   -6.3    4.2
H     0.6   -5.0    1.1
N    -4.2    0.7    0.7
C    -4.5   -0.4   -0.2
H    -4.8    1.6    0.6
H    -5.4   -0.1   -0.8
H    -4.7   -1.3    0.3
H    -3.6   -0.6   -0.9
