          35
 sphere cut out from bulk 
C    -0.7    0.0   -0.3
C    -0.0   -0.4    1.0
O     1.0   -1.1    1.0
H    -0.6    1.1   -0.5
H    -1.7   -0.3   -0.4
H    -0.1   -0.5   -1.2
N    -0.7    0.0    2.1
C    -1.7    1.0    2.2
C    -1.2    2.4    2.0
O    -0.1    2.8    2.2
H    -0.1   -0.2    3.0
H    -2.5    0.7    1.5
C    -2.4    0.9    3.6
C    -1.6    0.6    4.9
C    -0.5    1.7    5.2
N    -0.9    3.1    5.0
C    -1.9    3.7    5.7
N    -2.1    5.0    5.3
N    -2.6    3.1    6.6
H    -3.1    0.0    3.5
H    -3.0    1.8    3.8
H    -1.1   -0.3    4.8
H    -2.3    0.6    5.7
H     0.4    1.5    4.6
H    -0.2    1.5    6.3
H    -0.6    3.5    4.2
H    -2.7    5.6    5.9
H    -1.2    5.5    5.1
H    -3.2    3.7    7.1
N    -2.2    3.3    1.5
C    -3.6    3.0    1.2
H    -1.8    4.2    1.4
H    -4.2    2.9    2.1
H    -3.7    2.2    0.5
H    -4.0    3.9    0.7
