          35
 sphere cut out from bulk 
C    -0.4   -2.5   -0.5
C     0.0   -1.7    0.7
O     1.2   -1.7    1.1
H    -0.4   -1.9   -1.4
H    -1.4   -2.9   -0.4
H     0.3   -3.4   -0.6
N    -0.9   -1.0    1.4
C    -2.3   -0.7    1.1
C    -3.2   -2.0    1.2
O    -4.3   -2.1    0.5
H    -0.5   -0.4    2.1
H    -2.7   -0.0    1.9
C    -2.5    0.0   -0.3
C    -3.8    0.9   -0.3
C    -3.9    1.6   -1.6
N    -5.1    2.5   -1.6
C    -5.2    3.5   -2.6
N    -6.5    4.0   -2.6
N    -4.3    3.7   -3.5
H    -2.6   -0.7   -1.1
H    -1.6    0.6   -0.5
H    -3.7    1.7    0.5
H    -4.7    0.3   -0.1
H    -4.0    0.9   -2.5
H    -3.1    2.3   -1.9
H    -6.0    2.0   -1.4
H    -6.6    4.9   -3.2
H    -6.9    4.2   -1.6
H    -4.5    4.5   -4.0
N    -2.8   -2.9    2.1
C    -3.6   -4.1    2.4
H    -1.9   -2.7    2.5
H    -4.5   -4.1    1.8
H    -3.8   -4.2    3.5
H    -3.0   -5.0    2.1
