          35
 sphere cut out from bulk 
C     0.2    0.1    0.1
C     0.2   -0.1    1.6
O     1.2   -0.1    2.3
H     1.2    0.2   -0.2
H    -0.5    0.9   -0.2
H    -0.2   -0.8   -0.4
N    -1.1   -0.1    2.2
C    -2.4   -0.2    1.6
C    -3.1    1.2    1.4
O    -4.1    1.3    0.9
H    -1.0   -0.3    3.2
H    -2.3   -0.6    0.6
C    -3.3   -1.1    2.5
C    -2.9   -2.5    2.4
C    -3.9   -3.4    3.2
N    -3.5   -4.8    3.2
C    -3.8   -5.7    2.1
N    -3.3   -6.9    2.3
N    -4.5   -5.2    1.2
H    -4.3   -1.0    2.0
H    -3.4   -0.7    3.5
H    -1.9   -2.7    2.8
H    -2.9   -2.9    1.4
H    -4.9   -3.4    2.8
H    -3.9   -3.1    4.3
H    -2.6   -5.1    3.7
H    -3.6   -7.6    1.6
H    -3.3   -7.3    3.2
H    -4.8   -5.9    0.5
N    -2.4    2.3    1.9
C    -2.8    3.6    1.8
H    -1.5    2.1    2.4
H    -3.8    3.6    1.3
H    -2.1    4.3    1.2
H    -3.0    4.1    2.8
