          35
 sphere cut out from bulk 
C     0.1   -0.6    0.0
C    -0.0   -0.8    1.5
O     0.6   -1.7    2.1
H     1.2   -0.2   -0.2
H    -0.6    0.2   -0.4
H     0.0   -1.5   -0.5
N    -0.9   -0.0    2.2
C    -1.0    0.0    3.6
C    -2.4   -0.4    4.1
O    -2.8   -0.2    5.3
H    -1.3    0.8    1.7
H    -0.3   -0.8    4.0
C    -0.6    1.4    4.2
C    -1.4    2.5    3.7
C    -1.1    3.8    4.5
N    -1.8    5.0    4.0
C    -1.5    5.5    2.8
N    -0.2    5.5    2.4
N    -2.5    6.0    2.0
H     0.5    1.5    4.0
H    -0.7    1.2    5.3
H    -2.5    2.3    3.9
H    -1.2    2.7    2.7
H     0.0    4.0    4.5
H    -1.4    3.7    5.6
H    -2.8    5.0    4.2
H     0.0    6.1    1.6
H     0.5    5.7    3.1
H    -2.2    6.5    1.2
N    -3.2   -1.1    3.2
C    -4.5   -1.6    3.6
H    -2.8   -1.2    2.3
H    -4.5   -2.8    3.5
H    -5.3   -1.3    2.9
H    -4.7   -1.3    4.6
