          35
 sphere cut out from bulk 
C    -1.7   -1.8    4.1
C    -0.5   -1.3    3.2
O    -0.3   -1.8    2.1
H    -1.6   -2.9    4.2
H    -2.6   -1.7    3.5
H    -1.7   -1.3    5.1
N     0.2   -0.3    3.8
C     1.4    0.3    3.1
C     2.6   -0.6    3.2
O     3.6   -0.2    4.0
H     0.1   -0.1    4.7
H     1.1    0.3    2.0
C     1.6    1.7    3.5
C     0.4    2.7    3.2
C     0.6    4.1    3.7
N    -0.5    4.9    3.3
C    -0.6    6.3    3.5
N     0.2    6.8    4.6
N    -1.2    7.2    2.9
H     2.5    2.1    3.1
H     1.8    1.7    4.6
H    -0.5    2.3    3.6
H     0.2    2.7    2.1
H     1.6    4.5    3.2
H     0.8    4.1    4.8
H    -1.0    4.7    2.5
H     0.0    7.7    4.8
H     0.3    6.2    5.4
H    -1.7    6.7    2.0
N     2.6   -1.7    2.5
C     3.7   -2.7    2.6
H     1.7   -1.9    2.0
H     4.5   -2.2    3.1
H     4.0   -3.0    1.6
H     3.3   -3.6    3.1
