          35
 sphere cut out from bulk 
C    -1.1   -1.2    0.1
C    -0.4   -0.4    1.2
O     0.8   -0.5    1.5
H    -1.5   -0.6   -0.6
H    -1.8   -1.9    0.6
H    -0.3   -1.8   -0.3
N    -1.2    0.5    1.9
C    -2.6    0.7    1.8
C    -2.9    2.2    1.9
O    -3.4    2.7    2.9
H    -0.7    1.0    2.7
H    -2.9    0.3    0.8
C    -3.4   -0.1    2.9
C    -5.0   -0.1    2.9
C    -5.7   -0.4    1.6
N    -5.7    0.7    0.6
C    -5.1    0.7   -0.6
N    -5.3    1.9   -1.3
N    -4.4   -0.2   -1.2
H    -3.0    0.1    3.9
H    -3.1   -1.2    2.7
H    -5.2    1.0    3.2
H    -5.3   -0.8    3.6
H    -6.7   -0.6    1.8
H    -5.3   -1.3    1.1
H    -5.9    1.6    1.0
H    -6.2    2.3   -1.2
H    -5.0    1.8   -2.3
H    -4.3   -1.0   -0.6
N    -2.6    3.0    0.8
C    -1.9    2.5   -0.4
H    -2.7    3.9    1.0
H    -2.1    3.3   -1.1
H    -2.4    1.6   -0.8
H    -0.9    2.4   -0.3
