          35
 sphere cut out from bulk 
C     0.2    0.3    0.8
C    -0.3    0.5    2.2
O     0.4    0.6    3.2
H     1.3    0.5    0.8
H    -0.3    1.1    0.1
H    -0.0   -0.7    0.4
N    -1.7    0.5    2.4
C    -2.7    0.2    1.4
C    -3.3    1.5    0.8
O    -4.3    1.4    0.0
H    -2.0    0.5    3.4
H    -2.3   -0.3    0.6
C    -3.9   -0.7    2.0
C    -4.7   -0.0    3.1
C    -6.0   -0.7    3.3
N    -6.8   -1.0    2.1
C    -7.7   -0.1    1.5
N    -7.1    1.1    1.3
N    -8.9   -0.3    1.1
H    -3.4   -1.6    2.3
H    -4.5   -0.9    1.1
H    -4.9    1.0    2.8
H    -4.2    0.0    4.0
H    -6.6   -0.1    4.0
H    -5.8   -1.7    3.8
H    -7.3   -1.9    2.2
H    -7.7    1.7    0.8
H    -6.2    1.1    0.9
H    -9.2   -1.2    1.5
N    -2.8    2.7    1.2
C    -3.2    4.0    0.7
H    -2.0    2.6    1.9
H    -2.4    4.5    0.3
H    -3.6    4.6    1.6
H    -4.0    3.8   -0.0
