          35
 sphere cut out from bulk 
C    -0.8    0.7    1.4
C    -0.1   -0.5    2.0
O     1.1   -0.7    2.1
H     0.0    1.4    1.2
H    -1.5    1.1    2.1
H    -1.2    0.4    0.5
N    -0.9   -1.5    2.5
C    -2.3   -1.7    2.2
C    -3.2   -0.9    3.2
O    -3.0   -0.9    4.4
H    -0.4   -2.4    2.9
H    -2.5   -1.4    1.2
C    -2.7   -3.2    2.3
C    -2.1   -4.1    1.2
C    -0.6   -4.2    1.1
N     0.1   -4.4    2.3
C     1.5   -4.5    2.4
N     2.2   -3.5    1.7
N     2.2   -5.4    2.9
H    -3.8   -3.3    2.3
H    -2.4   -3.5    3.3
H    -2.5   -3.9    0.3
H    -2.5   -5.2    1.5
H    -0.2   -3.2    0.6
H    -0.3   -5.0    0.3
H    -0.3   -5.2    2.9
H     3.2   -3.5    1.8
H     1.8   -2.5    1.8
H     1.6   -6.2    3.2
N    -4.2   -0.3    2.6
C    -5.2    0.5    3.4
H    -4.3   -0.3    1.6
H    -6.2    0.1    3.3
H    -5.2    1.5    3.1
H    -4.9    0.4    4.5
