          35
 sphere cut out from bulk 
C     0.1    0.2   -0.7
C     0.0    0.5    0.8
O     0.8    1.3    1.4
H     0.7   -0.7   -0.8
H     0.6    1.1   -1.1
H    -0.9    0.0   -1.1
N    -0.9   -0.1    1.6
C    -2.1   -0.9    1.3
C    -1.7   -2.0    0.3
O    -0.7   -2.7    0.4
H    -0.8    0.2    2.6
H    -2.3   -1.5    2.2
C    -3.4   -0.1    1.0
C    -3.4    0.9   -0.1
C    -2.9    2.3    0.2
N    -3.0    3.3   -0.8
C    -4.1    3.7   -1.5
N    -5.2    3.8   -0.6
N    -4.3    4.0   -2.7
H    -3.6    0.4    2.0
H    -4.2   -0.8    0.9
H    -4.5    1.0   -0.5
H    -2.9    0.6   -1.0
H    -1.9    2.3    0.6
H    -3.5    2.7    1.1
H    -2.2    3.2   -1.5
H    -6.0    4.2   -1.1
H    -5.0    4.2    0.3
H    -3.5    3.7   -3.3
N    -2.6   -2.3   -0.7
C    -2.5   -3.3   -1.7
H    -3.5   -1.7   -0.8
H    -3.3   -4.0   -1.6
H    -1.5   -3.8   -1.4
H    -2.4   -2.9   -2.7
