          35
 sphere cut out from bulk 
C    -0.9   -0.2    0.3
C    -0.9   -0.0    1.8
O     0.1   -0.3    2.5
H    -1.5   -1.1    0.0
H     0.2   -0.5    0.0
H    -1.2    0.6   -0.2
N    -2.0    0.4    2.4
C    -3.1    1.3    1.9
C    -3.6    0.9    0.5
O    -3.6    1.6   -0.5
H    -1.9    0.5    3.4
H    -4.0    1.1    2.6
C    -2.9    2.8    2.0
C    -1.7    3.5    1.3
C    -0.2    3.1    1.7
N     0.0    2.8    3.1
C    -0.1    3.6    4.1
N     0.2    3.0    5.4
N    -0.5    4.8    3.9
H    -2.7    3.0    3.1
H    -3.8    3.3    1.8
H    -1.8    4.5    1.5
H    -1.8    3.3    0.2
H     0.4    4.0    1.4
H     0.1    2.3    1.1
H     0.2    1.8    3.3
H     0.3    3.7    6.1
H     0.9    2.4    5.4
H    -0.5    5.4    4.8
N    -4.2   -0.4    0.4
C    -4.5   -1.3    1.5
H    -4.6   -0.5   -0.5
H    -3.7   -1.5    2.1
H    -4.8   -2.3    1.0
H    -5.4   -1.0    2.1
