          35
 sphere cut out from bulk 
C    -0.3   -0.5    0.0
C    -0.1   -0.3    1.5
O     1.0   -0.4    2.0
H     0.7   -0.8   -0.4
H    -0.6    0.5   -0.4
H    -1.0   -1.2   -0.2
N    -1.2    0.0    2.3
C    -2.5    0.1    1.9
C    -3.2    1.1    2.8
O    -3.0    1.0    4.0
H    -1.0    0.1    3.3
H    -2.5    0.5    0.8
C    -3.3   -1.2    1.9
C    -4.6   -1.3    1.2
C    -4.5   -1.2   -0.3
N    -3.7   -2.3   -0.9
C    -4.3   -3.6   -1.1
N    -3.4   -4.4   -1.8
N    -5.5   -3.8   -0.7
H    -3.4   -1.5    3.0
H    -2.6   -2.0    1.5
H    -5.3   -0.5    1.5
H    -5.1   -2.2    1.4
H    -4.1   -0.3   -0.7
H    -5.5   -1.3   -0.8
H    -3.1   -2.0   -1.6
H    -3.7   -5.4   -1.8
H    -2.4   -4.3   -1.6
H    -5.7   -4.8   -0.8
N    -4.0    2.1    2.3
C    -4.3    2.4    0.9
H    -4.5    2.7    3.0
H    -3.4    2.4    0.3
H    -4.8    3.4    0.8
H    -5.1    1.7    0.5
