          35
 sphere cut out from bulk 
C     0.3   -0.2    1.6
C    -0.1   -0.0    3.0
O     0.7   -0.2    3.9
H     1.4   -0.6    1.6
H     0.2    0.7    1.0
H    -0.3   -1.0    1.1
N    -1.4    0.4    3.2
C    -2.5    0.5    2.2
C    -3.4    1.7    2.7
O    -3.8    1.7    3.8
H    -1.7    0.5    4.2
H    -2.0    0.7    1.2
C    -3.3   -0.8    2.1
C    -4.3   -0.8    1.0
C    -5.7   -0.1    1.3
N    -6.4   -0.8    2.4
C    -7.2   -0.1    3.2
N    -6.8    1.2    3.6
N    -8.3   -0.6    3.6
H    -3.8   -1.0    3.1
H    -2.6   -1.6    2.0
H    -3.9   -0.4    0.1
H    -4.6   -1.9    0.7
H    -6.3   -0.2    0.4
H    -5.5    0.9    1.5
H    -6.8   -1.7    2.2
H    -7.3    1.6    4.3
H    -5.8    1.3    3.8
H    -8.8   -0.1    4.3
N    -3.6    2.7    1.8
C    -3.1    2.9    0.5
H    -4.2    3.4    2.2
H    -3.4    3.8    0.1
H    -3.5    2.1   -0.2
H    -2.0    2.8    0.4
