          35
 sphere cut out from bulk 
C    -0.8   -1.0    0.4
C    -1.7    0.2    0.8
O    -1.3    1.4    0.6
H    -0.1   -1.2    1.2
H    -0.3   -0.7   -0.5
H    -1.4   -1.9    0.2
N    -2.9   -0.1    1.4
C    -3.8    0.8    2.0
C    -4.1    2.1    1.2
O    -4.1    3.2    1.7
H    -3.0   -1.1    1.6
H    -4.8    0.3    2.0
C    -3.4    1.2    3.5
C    -2.2    2.0    3.7
C    -1.1    1.4    4.5
N    -0.5    0.2    3.9
C     0.8    0.2    3.3
N     1.0    1.4    2.6
N     1.5   -0.9    3.4
H    -3.3    0.2    4.0
H    -4.3    1.7    3.9
H    -2.5    3.0    4.2
H    -1.8    2.4    2.7
H    -1.5    1.1    5.5
H    -0.3    2.1    4.7
H    -0.6   -0.7    4.5
H     0.3    1.8    2.0
H     1.9    1.3    2.1
H     2.3   -0.8    2.8
N    -4.5    1.9   -0.1
C    -4.5    0.7   -0.9
H    -4.6    2.8   -0.6
H    -5.2    0.9   -1.8
H    -5.0   -0.1   -0.4
H    -3.6    0.4   -1.4
