          35
 sphere cut out from bulk 
C     0.5    0.9    0.8
C     0.1   -0.2    1.9
O     0.9   -0.9    2.5
H     1.1    0.4    0.1
H     1.2    1.6    1.3
H    -0.3    1.4    0.4
N    -1.2   -0.3    2.0
C    -1.8   -1.2    3.0
C    -2.9   -2.0    2.2
O    -4.1   -1.9    2.4
H    -1.9    0.3    1.5
H    -1.0   -1.9    3.3
C    -2.4   -0.6    4.3
C    -1.8    0.7    4.7
C    -2.7    1.9    4.5
N    -3.0    2.3    3.1
C    -3.8    1.6    2.2
N    -5.0    1.2    2.7
N    -3.3    1.3    1.0
H    -2.2   -1.4    5.1
H    -3.5   -0.5    4.2
H    -0.8    0.9    4.3
H    -1.6    0.7    5.8
H    -2.3    2.9    5.0
H    -3.7    1.8    5.0
H    -2.1    2.6    2.6
H    -5.2    0.2    2.4
H    -5.2    1.4    3.6
H    -4.1    0.9    0.4
N    -2.5   -3.0    1.4
C    -1.1   -3.2    0.9
H    -3.2   -3.4    0.8
H    -0.8   -2.6    0.1
H    -1.0   -4.3    0.6
H    -0.4   -3.1    1.7
