          35
 sphere cut out from bulk 
C    -0.5    0.7    0.1
C    -0.3    1.1    1.6
O     0.8    1.1    2.1
H     0.1    1.3   -0.5
H    -1.6    0.8   -0.2
H    -0.2   -0.3   -0.0
N    -1.5    1.3    2.3
C    -1.5    1.5    3.8
C    -0.5    2.5    4.2
O     0.2    2.3    5.2
H    -2.4    1.1    1.8
H    -2.5    2.0    3.9
C    -1.5    0.1    4.5
C    -1.6    0.2    6.0
C    -2.7    1.1    6.6
N    -2.7    1.2    8.0
C    -1.9    2.1    8.7
N    -1.1    3.0    8.0
N    -1.8    2.1   10.0
H    -0.5   -0.3    4.2
H    -2.3   -0.5    4.1
H    -0.7    0.5    6.5
H    -1.8   -0.8    6.4
H    -3.7    0.7    6.3
H    -2.6    2.1    6.2
H    -3.1    0.4    8.6
H    -0.5    3.5    8.6
H    -0.7    2.6    7.1
H    -2.5    1.5   10.5
N    -0.4    3.8    3.6
C    -1.2    4.3    2.5
H     0.3    4.3    4.0
H    -1.2    5.4    2.5
H    -2.2    3.9    2.5
H    -0.8    4.0    1.5
