          35
 sphere cut out from bulk 
C    -0.2    0.9   -0.8
C     0.4    1.0    0.6
O     1.6    1.3    0.8
H    -0.7   -0.1   -0.9
H     0.6    1.0   -1.5
H    -0.9    1.7   -0.9
N    -0.4    0.7    1.7
C    -1.9    0.8    1.9
C    -2.5   -0.2    0.9
O    -2.3   -1.4    0.9
H     0.1    0.7    2.6
H    -2.0    0.3    2.8
C    -2.4    2.2    1.9
C    -1.7    3.0    3.0
C    -1.8    4.6    2.8
N    -1.2    5.0    1.5
C    -0.1    4.5    0.9
N     1.0    4.3    1.6
N    -0.2    4.2   -0.4
H    -3.5    2.2    2.0
H    -2.1    2.7    0.9
H    -0.7    2.7    3.1
H    -2.2    2.8    4.0
H    -1.2    5.0    3.6
H    -2.8    5.0    2.9
H    -2.0    5.2    0.8
H     1.6    3.5    1.4
H     0.9    4.5    2.6
H     0.7    4.0   -0.8
N    -3.5    0.3    0.1
C    -4.2   -0.5   -0.9
H    -3.6    1.3    0.0
H    -5.2   -0.2   -1.0
H    -4.1   -1.5   -0.6
H    -3.8   -0.4   -1.9
