          35
 sphere cut out from bulk 
C    -0.1    0.6    0.1
C    -0.1    0.2    1.6
O     0.9    0.1    2.2
H     0.7    1.4    0.0
H    -1.1    1.0   -0.2
H     0.1   -0.2   -0.5
N    -1.3   -0.1    2.2
C    -2.7    0.0    1.8
C    -3.0   -0.5    0.4
O    -2.4   -1.5   -0.1
H    -1.2   -0.4    3.2
H    -3.3   -0.7    2.4
C    -3.4    1.4    2.2
C    -2.7    2.6    1.5
C    -3.6    3.9    1.4
N    -4.7    3.7    0.4
C    -5.9    3.2    0.7
N    -6.5    2.8   -0.6
N    -6.5    3.0    1.8
H    -3.3    1.5    3.2
H    -4.4    1.4    1.9
H    -2.4    2.4    0.5
H    -1.8    2.9    2.1
H    -3.0    4.8    1.2
H    -4.1    4.0    2.4
H    -4.3    3.6   -0.5
H    -7.5    2.6   -0.4
H    -6.4    3.5   -1.3
H    -5.9    3.2    2.6
N    -4.0    0.1   -0.3
C    -4.4   -0.4   -1.6
H    -4.5    0.8    0.1
H    -5.2    0.2   -2.0
H    -4.8   -1.4   -1.5
H    -3.6   -0.5   -2.3
