          35
 sphere cut out from bulk 
C    -0.2   -0.2   -0.2
C    -0.1   -0.1    1.3
O     1.0   -0.3    1.8
H     0.5    0.5   -0.7
H    -1.3   -0.0   -0.6
H     0.1   -1.2   -0.6
N    -1.2    0.1    2.0
C    -1.4    0.0    3.5
C    -0.8    1.2    4.2
O    -1.4    1.7    5.2
H    -2.1    0.2    1.5
H    -2.5    0.2    3.6
C    -1.0   -1.4    4.0
C    -0.9   -1.5    5.5
C     0.6   -1.2    6.1
N     1.5   -2.2    5.7
C     2.8   -2.0    5.2
N     2.9   -0.9    4.3
N     3.8   -2.7    5.6
H    -0.0   -1.7    3.6
H    -1.8   -2.1    3.6
H    -1.2   -2.5    5.9
H    -1.6   -0.8    6.0
H     0.5   -1.1    7.2
H     0.9   -0.2    5.7
H     1.5   -3.0    6.3
H     3.8   -0.8    3.9
H     2.1   -0.8    3.6
H     4.6   -2.5    5.1
N     0.5    1.6    3.9
C     1.2    2.6    4.6
H     0.9    1.1    3.1
H     1.5    3.4    3.9
H     2.1    2.2    5.0
H     0.6    3.0    5.3
