          35
 sphere cut out from bulk 
C     0.3   -0.1    0.2
C     0.3    0.1    1.7
O     1.3    0.2    2.4
H    -0.7    0.0   -0.3
H     0.7   -1.1    0.0
H     1.1    0.6   -0.2
N    -1.0    0.2    2.2
C    -1.4    0.2    3.6
C    -1.9    1.6    4.2
O    -3.0    1.7    4.8
H    -1.7    0.1    1.6
H    -2.3   -0.3    3.7
C    -0.5   -0.4    4.6
C    -0.3   -1.9    4.4
C     0.7   -2.6    5.3
N     0.8   -4.0    5.2
C     1.3   -4.7    4.2
N     1.1   -6.1    4.3
N     1.8   -4.1    3.2
H    -0.9   -0.2    5.6
H     0.6    0.0    4.6
H    -0.1   -2.2    3.4
H    -1.3   -2.4    4.6
H     0.6   -2.3    6.3
H     1.7   -2.2    4.9
H    -0.0   -4.5    5.7
H     1.6   -6.7    3.6
H     1.2   -6.5    5.2
H     2.3   -4.8    2.5
N    -1.1    2.8    4.0
C     0.2    3.0    3.4
H    -1.6    3.6    4.4
H     0.7    3.7    4.0
H     0.1    3.3    2.4
H     0.8    2.0    3.4
