          35
 sphere cut out from bulk 
C     0.8   -0.7    0.4
C     0.0   -1.1    1.6
O     0.6   -1.5    2.7
H     1.4    0.2    0.7
H     0.1   -0.3   -0.4
H     1.4   -1.5    0.1
N    -1.4   -1.1    1.5
C    -2.2   -1.8    2.6
C    -3.6   -2.0    2.0
O    -4.2   -3.1    2.2
H    -1.8   -1.0    0.6
H    -1.8   -2.7    2.8
C    -2.3   -0.9    3.8
C    -3.3   -1.4    4.9
C    -2.9   -2.8    5.5
N    -3.9   -3.3    6.4
C    -5.1   -3.8    6.1
N    -5.3   -4.3    4.8
N    -6.0   -3.8    7.0
H    -2.6    0.1    3.5
H    -1.3   -0.8    4.2
H    -4.3   -1.4    4.5
H    -3.3   -0.7    5.7
H    -1.9   -2.7    6.0
H    -2.8   -3.5    4.7
H    -3.9   -2.9    7.3
H    -4.7   -4.0    4.0
H    -6.2   -4.5    4.5
H    -6.9   -4.3    6.7
N    -4.2   -1.0    1.3
C    -5.6   -1.1    0.8
H    -3.7   -0.1    1.4
H    -5.6   -0.5   -0.1
H    -6.3   -0.7    1.6
H    -5.8   -2.1    0.6
