          35
 sphere cut out from bulk 
C     0.4    1.5    0.4
C     0.2    0.9    1.8
O     1.1    0.8    2.6
H     0.9    2.5    0.5
H    -0.5    1.5   -0.2
H     1.2    0.8   -0.1
N    -1.1    0.6    2.1
C    -1.4   -0.1    3.3
C    -2.4   -1.2    2.9
O    -3.2   -1.1    1.9
H    -1.8    0.5    1.4
H    -0.5   -0.6    3.7
C    -2.0    0.8    4.4
C    -1.1    1.8    5.0
C    -0.1    1.2    5.9
N     0.8    2.2    6.5
C     2.1    2.6    6.0
N     2.6    1.8    5.0
N     2.8    3.6    6.5
H    -2.5    0.2    5.2
H    -2.9    1.3    3.9
H    -1.6    2.6    5.5
H    -0.6    2.4    4.2
H     0.6    0.5    5.4
H    -0.6    0.7    6.7
H     0.4    2.8    7.2
H     2.0    1.5    4.2
H     3.5    2.2    4.6
H     2.4    4.0    7.3
N    -2.5   -2.3    3.8
C    -1.7   -2.6    4.9
H    -3.2   -3.0    3.5
H    -0.6   -2.8    4.5
H    -2.0   -3.6    5.3
H    -1.7   -1.9    5.7
