          35
 sphere cut out from bulk 
C    -0.6    0.5    0.1
C    -0.5    0.6    1.6
O     0.3    1.4    2.1
H     0.5    0.5   -0.3
H    -1.0    1.4   -0.3
H    -1.1   -0.3   -0.3
N    -1.4   -0.1    2.3
C    -2.6   -0.8    1.9
C    -2.4   -2.0    1.0
O    -2.9   -2.1   -0.1
H    -1.3    0.0    3.3
H    -3.0   -1.2    2.9
C    -3.7    0.2    1.3
C    -4.4    1.1    2.4
C    -3.5    2.2    3.1
N    -2.5    2.9    2.3
C    -2.8    3.7    1.2
N    -1.7    4.0    0.5
N    -4.0    4.2    0.9
H    -4.5   -0.4    0.8
H    -3.2    0.8    0.5
H    -4.9    0.5    3.1
H    -5.2    1.6    1.8
H    -3.0    1.7    3.9
H    -4.2    2.9    3.6
H    -1.6    2.5    2.4
H    -0.8    4.1    0.9
H    -1.9    4.8   -0.1
H    -4.7    3.9    1.5
N    -1.6   -3.0    1.4
C    -0.9   -3.1    2.7
H    -1.5   -3.7    0.8
H    -0.6   -4.2    2.9
H    -1.6   -2.8    3.6
H    -0.0   -2.5    2.8
