          35
 sphere cut out from bulk 
C     1.4    0.6    0.7
C     0.8    0.8    2.1
O     1.6    1.1    3.1
H     1.8    1.6    0.4
H     0.6    0.3   -0.0
H     2.2   -0.1    0.7
N    -0.5    0.5    2.2
C    -1.2    0.6    3.5
C    -2.4   -0.3    3.4
O    -2.9   -0.5    2.3
H    -1.1    0.2    1.5
H    -0.5    0.2    4.3
C    -1.6    2.0    4.0
C    -2.4    2.8    3.0
C    -3.9    3.0    3.3
N    -4.7    1.7    3.3
C    -5.3    1.2    4.4
N    -5.9   -0.0    4.2
N    -5.3    1.9    5.5
H    -0.6    2.5    4.1
H    -2.0    2.0    4.9
H    -2.3    2.4    1.9
H    -2.0    3.8    2.9
H    -4.4    3.7    2.6
H    -4.0    3.4    4.3
H    -4.4    1.1    2.6
H    -6.7   -0.2    4.8
H    -6.2   -0.2    3.2
H    -5.9    1.4    6.2
N    -2.9   -0.8    4.6
C    -2.5   -0.6    5.9
H    -3.9   -1.2    4.4
H    -2.8   -1.4    6.6
H    -3.0    0.3    6.3
H    -1.4   -0.4    6.0
