          35
 sphere cut out from bulk 
C     0.3   -0.7    0.3
C    -0.1   -0.3    1.7
O     0.6   -0.5    2.7
H     0.5   -1.8    0.3
H     1.3   -0.2    0.1
H    -0.4   -0.5   -0.5
N    -1.4    0.3    1.7
C    -2.0    0.8    3.0
C    -3.5    0.7    2.8
O    -4.0    1.0    1.7
H    -1.9    0.5    0.9
H    -1.6    0.1    3.8
C    -1.5    2.2    3.3
C    -2.1    2.7    4.7
C    -1.5    4.1    5.0
N    -2.0    4.7    6.3
C    -1.5    4.2    7.5
N    -2.3    4.8    8.6
N    -0.6    3.4    7.8
H    -1.8    2.9    2.5
H    -0.4    2.2    3.3
H    -1.9    2.0    5.5
H    -3.2    2.8    4.6
H    -1.7    4.8    4.2
H    -0.4    4.0    5.1
H    -2.9    5.0    6.2
H    -1.9    4.5    9.4
H    -2.5    5.8    8.5
H    -0.2    3.0    6.9
N    -4.2    0.3    3.9
C    -5.6    0.2    3.9
H    -3.6    0.0    4.7
H    -5.9   -0.8    4.2
H    -6.0    0.5    3.0
H    -6.0    0.9    4.7
