          35
 sphere cut out from bulk 
C    -2.3    1.1    1.5
C    -1.9    0.3    2.7
O    -2.0    0.7    3.8
H    -2.0    2.2    1.6
H    -3.4    1.1    1.4
H    -2.0    0.7    0.5
N    -1.2   -0.9    2.4
C    -0.6   -1.7    3.4
C     0.4   -2.6    2.7
O     0.5   -2.7    1.4
H    -1.0   -1.1    1.4
H    -0.1   -1.1    4.1
C    -1.7   -2.6    4.1
C    -2.6   -3.4    3.2
C    -4.0   -2.8    3.1
N    -4.8   -3.4    2.1
C    -4.8   -3.0    0.7
N    -5.8   -3.6   -0.1
N    -4.0   -2.2    0.2
H    -2.3   -1.9    4.8
H    -1.1   -3.3    4.8
H    -2.7   -4.4    3.6
H    -2.2   -3.5    2.2
H    -3.9   -1.7    2.9
H    -4.5   -2.8    4.0
H    -5.8   -3.7    2.4
H    -5.9   -4.7    0.1
H    -5.6   -3.5   -1.0
H    -3.4   -1.7    0.9
N     1.3   -3.2    3.5
C     2.3   -4.1    3.0
H     1.2   -3.1    4.5
H     2.2   -4.1    1.9
H     2.2   -5.2    3.4
H     3.3   -3.8    3.3
