          35
 sphere cut out from bulk 
C     1.6   -2.2    1.4
C     0.2   -1.6    1.6
O    -0.0   -0.4    1.1
H     2.4   -1.5    1.8
H     1.8   -2.4    0.4
H     1.7   -3.2    2.0
N    -0.7   -2.3    2.2
C    -2.1   -1.9    2.3
C    -2.4   -0.8    3.4
O    -3.3   -1.0    4.2
H    -0.4   -3.2    2.6
H    -2.4   -1.4    1.4
C    -3.0   -3.2    2.5
C    -2.5   -4.3    3.4
C    -2.3   -4.0    4.8
N    -3.5   -3.6    5.5
C    -4.6   -4.4    5.8
N    -5.8   -3.7    6.0
N    -4.6   -5.7    5.8
H    -3.1   -3.6    1.4
H    -4.0   -2.9    2.8
H    -1.6   -4.8    3.0
H    -3.2   -5.2    3.2
H    -1.6   -3.2    5.0
H    -2.0   -4.9    5.4
H    -3.7   -2.6    5.3
H    -5.9   -2.8    5.5
H    -6.6   -4.3    6.1
H    -3.7   -6.1    5.7
N    -1.7    0.2    3.3
C    -1.8    1.4    4.2
H    -1.0    0.3    2.5
H    -2.8    2.0    3.9
H    -1.0    2.0    4.1
H    -1.9    1.1    5.2
