          35
 sphere cut out from bulk 
C    -0.1    1.8    0.3
C    -0.1    0.6    1.3
O     1.0    0.2    1.7
H     0.3    2.7    0.8
H    -1.2    2.0   -0.0
H     0.5    1.6   -0.6
N    -1.3    0.1    1.6
C    -1.4   -1.0    2.6
C    -1.0   -2.4    2.2
O    -0.7   -3.2    3.1
H    -2.1    0.5    1.3
H    -0.7   -0.8    3.4
C    -2.8   -1.0    3.2
C    -3.9   -1.4    2.3
C    -5.3   -1.4    3.0
N    -5.4   -2.5    3.9
C    -5.8   -2.4    5.2
N    -5.4   -1.2    5.8
N    -6.6   -3.3    5.7
H    -3.0   -0.1    3.7
H    -2.8   -1.8    4.0
H    -3.7   -2.3    1.8
H    -4.0   -0.6    1.5
H    -6.1   -1.6    2.2
H    -5.5   -0.5    3.5
H    -5.7   -3.4    3.5
H    -5.6   -1.2    6.8
H    -4.5   -0.9    5.7
H    -6.7   -3.2    6.7
N    -0.9   -2.8    0.9
C    -1.2   -2.1   -0.4
H    -0.6   -3.8    0.8
H    -1.2   -2.8   -1.2
H    -0.4   -1.4   -0.6
H    -2.1   -1.6   -0.4
