          35
 sphere cut out from bulk 
C     0.0   -0.4   -0.8
C     0.3   -0.9    0.6
O     1.3   -1.4    0.9
H     0.1    0.7   -0.9
H    -1.0   -0.8   -1.2
H     0.8   -0.8   -1.4
N    -0.7   -0.7    1.6
C    -2.1   -0.3    1.5
C    -3.0   -1.5    0.8
O    -2.5   -2.1   -0.1
H    -0.4   -1.1    2.5
H    -2.4   -0.2    2.5
C    -2.5    1.0    0.8
C    -2.0    2.2    1.6
C    -0.6    2.6    1.4
N    -0.1    3.7    2.3
C     0.1    3.5    3.7
N     0.2    4.7    4.4
N     0.2    2.3    4.3
H    -3.6    1.0    0.7
H    -2.1    1.0   -0.2
H    -2.3    2.1    2.7
H    -2.7    3.1    1.3
H    -0.4    3.0    0.4
H     0.1    1.8    1.6
H    -0.6    4.6    2.2
H     0.6    4.4    5.4
H     0.8    5.4    4.0
H    -0.0    1.6    3.7
N    -4.2   -1.7    1.4
C    -4.8   -1.0    2.5
H    -4.7   -2.4    0.9
H    -4.3   -1.2    3.5
H    -5.8   -1.4    2.6
H    -4.9    0.1    2.4
