          35
 sphere cut out from bulk 
C     0.1    0.4   -0.0
C    -0.9    1.1    0.9
O    -1.2    2.2    0.7
H     0.8    1.2   -0.4
H    -0.4   -0.1   -0.9
H     0.7   -0.4    0.4
N    -1.5    0.3    1.9
C    -1.4   -1.1    2.1
C     0.0   -1.6    2.6
O     0.4   -2.7    2.5
H    -2.2    0.8    2.4
H    -2.0   -1.3    3.0
C    -1.9   -2.0    1.0
C    -3.0   -3.0    1.4
C    -2.6   -4.1    2.3
N    -1.4   -4.9    1.9
C    -1.6   -5.8    0.9
N    -0.4   -6.4    0.5
N    -2.8   -6.2    0.4
H    -1.1   -2.5    0.5
H    -2.3   -1.3    0.2
H    -3.4   -3.5    0.5
H    -3.9   -2.5    1.8
H    -3.4   -4.8    2.5
H    -2.3   -3.7    3.3
H    -0.6   -4.4    2.0
H     0.3   -6.5    1.2
H    -0.4   -7.2   -0.1
H    -2.7   -6.9   -0.2
N     0.7   -0.6    3.3
C     2.0   -0.8    3.9
H     0.3    0.3    3.3
H     2.0   -0.5    4.9
H     2.8   -0.2    3.3
H     2.3   -1.9    3.8
