          35
 sphere cut out from bulk 
C    -0.9   -0.7   -0.4
C    -0.8   -0.3    1.1
O     0.3    0.0    1.5
H    -0.5   -1.7   -0.5
H    -0.4   -0.0   -1.0
H    -2.0   -0.8   -0.7
N    -1.9   -0.2    1.8
C    -2.0   -0.0    3.2
C    -1.0    1.1    3.7
O    -0.1    0.9    4.5
H    -2.8   -0.6    1.3
H    -3.0    0.4    3.5
C    -1.8   -1.3    4.0
C    -2.1   -1.3    5.5
C    -1.2   -2.1    6.4
N     0.1   -1.7    6.3
C     1.1   -2.3    5.5
N     2.0   -1.5    5.0
N     1.2   -3.6    5.3
H    -0.7   -1.6    3.9
H    -2.4   -2.1    3.5
H    -3.2   -1.6    5.6
H    -2.1   -0.2    5.8
H    -1.3   -3.2    6.1
H    -1.6   -2.1    7.4
H     0.2   -0.7    6.3
H     2.6   -2.0    4.3
H     1.6   -0.6    4.6
H     0.5   -4.1    5.9
N    -1.1    2.3    3.2
C    -2.0    2.8    2.1
H    -0.4    3.0    3.5
H    -2.2    3.9    2.2
H    -3.0    2.3    2.2
H    -1.6    2.6    1.1
