          35
 sphere cut out from bulk 
C    -3.9    0.5    0.1
C    -2.8    0.1    1.0
O    -2.0   -0.8    0.6
H    -4.6    1.3    0.5
H    -4.6   -0.3   -0.1
H    -3.5    0.9   -0.9
N    -2.6    0.8    2.1
C    -1.6    0.5    3.1
C    -1.9   -0.7    4.0
O    -2.3   -0.5    5.2
H    -3.4    1.4    2.4
H    -0.7    0.2    2.5
C    -1.2    1.8    3.9
C    -0.7    3.0    3.1
C    -0.4    4.2    3.9
N     0.7    4.0    4.9
C     2.0    3.6    4.5
N     2.4    4.3    3.3
N     2.6    2.7    5.2
H    -0.5    1.5    4.6
H    -2.1    2.1    4.5
H    -1.5    3.3    2.3
H     0.1    2.7    2.5
H    -1.2    4.5    4.5
H    -0.1    5.0    3.2
H     0.4    3.5    5.7
H     2.1    5.2    3.2
H     3.4    4.2    3.1
H     3.6    2.7    4.9
N    -1.8   -1.9    3.4
C    -2.2   -3.1    4.0
H    -1.6   -1.8    2.4
H    -1.4   -3.9    3.9
H    -3.1   -3.5    3.6
H    -2.4   -2.9    5.1
