          35
 sphere cut out from bulk 
C    -1.7   -1.2   -1.3
C    -2.1   -0.3   -0.1
O    -2.5    0.8   -0.3
H    -0.9   -0.7   -1.9
H    -2.6   -1.3   -1.9
H    -1.4   -2.2   -1.0
N    -1.9   -0.8    1.1
C    -2.0    0.0    2.3
C    -1.4   -0.7    3.5
O    -0.7   -0.0    4.3
H    -1.3   -1.6    1.2
H    -1.5    0.9    2.2
C    -3.5    0.3    2.6
C    -3.7    1.1    3.9
C    -3.1    2.5    3.9
N    -3.2    3.2    5.2
C    -2.4    3.1    6.3
N    -1.2    2.5    6.0
N    -2.7    3.5    7.5
H    -4.1   -0.6    2.7
H    -3.9    0.9    1.8
H    -3.3    0.6    4.8
H    -4.8    1.2    4.1
H    -3.6    3.1    3.1
H    -2.0    2.5    3.7
H    -4.2    3.5    5.4
H    -0.7    2.3    6.9
H    -1.1    1.7    5.4
H    -3.5    4.1    7.5
N    -1.6   -2.0    3.7
C    -1.2   -2.8    4.8
H    -2.3   -2.4    3.1
H    -0.9   -3.8    4.5
H    -1.9   -2.9    5.6
H    -0.3   -2.3    5.2
