          35
 sphere cut out from bulk 
C     0.4   -0.3    2.7
C    -0.6    0.5    3.4
O    -0.4    1.6    3.9
H     0.7    0.1    1.7
H     0.2   -1.4    2.6
H     1.4   -0.3    3.3
N    -1.9   -0.0    3.5
C    -2.6   -1.1    2.7
C    -2.1   -2.5    3.1
O    -2.3   -3.5    2.3
H    -2.5    0.7    3.9
H    -3.6   -1.0    3.0
C    -2.5   -0.8    1.2
C    -3.4    0.4    0.8
C    -3.0    0.9   -0.7
N    -1.7    1.6   -0.7
C    -0.5    1.0   -0.8
N    -0.5   -0.1   -1.7
N     0.6    1.4   -0.3
H    -2.9   -1.8    0.7
H    -1.5   -0.7    0.9
H    -3.2    1.2    1.5
H    -4.4    0.1    0.8
H    -3.8    1.6   -1.0
H    -3.0    0.1   -1.4
H    -1.7    2.4   -0.1
H     0.5   -0.4   -1.8
H    -1.0   -0.1   -2.5
H     0.5    2.2    0.4
N    -1.6   -2.6    4.3
C    -1.2   -3.9    4.9
H    -1.5   -1.8    4.9
H    -1.7   -4.1    5.9
H    -0.1   -3.9    5.1
H    -1.4   -4.7    4.2
