          35
 sphere cut out from bulk 
C    -0.3   -2.2    1.6
C    -0.3   -0.8    2.4
O     0.8   -0.4    2.8
H     0.8   -2.4    1.3
H    -0.9   -2.2    0.7
H    -0.6   -3.0    2.3
N    -1.5   -0.2    2.6
C    -2.8   -0.5    2.1
C    -3.2   -2.0    2.4
O    -3.6   -2.7    1.5
H    -1.4    0.7    3.1
H    -3.5    0.1    2.7
C    -3.0   -0.1    0.6
C    -2.7    1.3    0.3
C    -3.0    1.8   -1.1
N    -4.4    1.8   -1.5
C    -5.0    0.8   -2.2
N    -6.4    1.0   -2.4
N    -4.6   -0.3   -2.7
H    -4.1   -0.3    0.3
H    -2.5   -0.8   -0.1
H    -1.6    1.5    0.5
H    -3.3    2.0    1.0
H    -2.5    1.1   -1.9
H    -2.6    2.8   -1.3
H    -5.0    2.4   -1.0
H    -6.8    0.3   -3.0
H    -6.6    2.0   -2.7
H    -3.6   -0.5   -2.4
N    -3.2   -2.4    3.7
C    -2.9   -1.6    4.9
H    -3.5   -3.3    3.8
H    -3.3   -2.1    5.7
H    -3.3   -0.6    4.8
H    -1.8   -1.5    5.0
