          35
 sphere cut out from bulk 
C    -0.0   -2.4    1.1
C    -0.1   -1.4    2.2
O     0.6   -1.5    3.2
H    -0.7   -2.2    0.2
H    -0.2   -3.4    1.5
H     1.0   -2.4    0.7
N    -1.0   -0.4    2.0
C    -1.1    0.8    2.9
C    -2.0    0.5    4.1
O    -3.0    1.2    4.4
H    -1.6   -0.4    1.2
H    -0.1    1.0    3.3
C    -1.6    2.0    2.1
C    -0.4    2.8    1.4
C     0.5    3.6    2.4
N    -0.1    4.7    3.0
C    -1.1    4.6    4.0
N    -0.8    3.6    5.0
N    -2.1    5.3    4.0
H    -2.1    2.7    2.8
H    -2.3    1.7    1.3
H    -0.9    3.5    0.7
H     0.2    2.1    0.8
H     1.3    4.0    1.8
H     0.9    2.9    3.1
H    -0.4    5.5    2.4
H    -1.6    3.1    5.4
H    -0.0    3.1    4.9
H    -2.7    5.3    4.8
N    -1.6   -0.5    4.9
C    -2.2   -1.0    6.1
H    -0.7   -1.0    4.5
H    -2.5   -2.0    6.0
H    -3.1   -0.4    6.2
H    -1.6   -0.8    7.0
