          35
 sphere cut out from bulk 
C    -0.1   -0.1    0.1
C    -0.0   -0.0    1.6
O     1.0   -0.0    2.2
H    -0.3   -1.2   -0.2
H     0.9    0.2   -0.3
H    -0.9    0.5   -0.4
N    -1.2   -0.0    2.3
C    -2.6    0.1    1.8
C    -2.9   -1.0    0.8
O    -3.4   -0.7   -0.3
H    -1.1    0.1    3.3
H    -3.2   -0.2    2.7
C    -3.0    1.5    1.3
C    -2.9    2.5    2.4
C    -3.3    3.9    1.9
N    -3.2    5.0    2.9
C    -4.2    5.1    3.9
N    -3.8    6.1    4.9
N    -5.3    4.5    4.0
H    -4.1    1.4    1.0
H    -2.5    1.7    0.4
H    -1.8    2.6    2.7
H    -3.5    2.3    3.3
H    -4.3    3.9    1.5
H    -2.7    4.2    1.1
H    -2.3    5.2    3.2
H    -4.6    6.3    5.5
H    -3.4    6.9    4.5
H    -5.4    3.8    3.3
N    -2.7   -2.3    1.1
C    -2.2   -2.9    2.4
H    -3.0   -3.0    0.4
H    -2.5   -3.9    2.4
H    -2.7   -2.4    3.2
H    -1.2   -2.8    2.5
