          35
 sphere cut out from bulk 
C     0.4    0.1    1.6
C    -0.3    0.9    2.7
O     0.4    1.3    3.7
H     1.4    0.1    1.7
H     0.1    0.4    0.6
H     0.1   -1.0    1.7
N    -1.6    1.1    2.6
C    -2.6    0.4    1.8
C    -3.8    1.3    1.7
O    -4.1    2.1    2.5
H    -2.0    1.7    3.4
H    -2.1    0.3    0.8
C    -2.9   -1.0    2.3
C    -4.0   -1.1    3.4
C    -3.8   -0.4    4.7
N    -2.4   -0.5    5.2
C    -2.0    0.4    6.2
N    -0.6    0.3    6.5
N    -2.7    1.2    6.9
H    -2.0   -1.4    2.6
H    -3.3   -1.6    1.4
H    -4.0   -2.2    3.6
H    -5.0   -0.9    3.0
H    -4.5   -0.8    5.5
H    -4.0    0.7    4.5
H    -1.9   -1.3    5.2
H    -0.3    0.9    7.2
H    -0.1    0.4    5.6
H    -3.7    1.1    6.7
N    -4.7    1.1    0.6
C    -4.5    0.1   -0.5
H    -5.5    1.7    0.6
H    -3.5    0.0   -0.8
H    -5.1    0.5   -1.4
H    -4.9   -0.8   -0.2
