          35
 sphere cut out from bulk 
C     0.7    0.2    0.4
C    -0.2    0.8    1.5
O    -0.5    1.9    1.5
H     1.6    0.7    0.4
H     0.2    0.4   -0.6
H     0.8   -0.9    0.5
N    -0.6   -0.1    2.4
C    -1.3    0.3    3.6
C    -0.7   -0.5    4.8
O    -0.2   -1.6    4.7
H    -0.2   -1.1    2.5
H    -1.1    1.4    3.7
C    -2.8    0.1    3.6
C    -3.6    1.0    2.6
C    -3.6    2.5    3.0
N    -4.1    2.7    4.4
C    -3.4    2.7    5.5
N    -4.2    2.4    6.7
N    -2.1    2.9    5.7
H    -3.2    0.2    4.6
H    -3.0   -1.0    3.2
H    -4.6    0.7    2.5
H    -3.1    1.0    1.6
H    -4.1    3.1    2.3
H    -2.5    2.9    3.0
H    -5.1    2.4    4.5
H    -3.7    2.6    7.5
H    -5.1    2.6    6.6
H    -1.7    3.1    4.8
N    -0.8    0.2    6.0
C    -0.3   -0.4    7.2
H    -1.2    1.1    6.0
H     0.3    0.3    7.8
H     0.2   -1.4    7.0
H    -1.2   -0.6    7.9
