          35
 sphere cut out from bulk 
C    -0.7    0.9   -0.3
C    -1.0    1.4    1.1
O    -1.4    2.6    1.2
H    -0.1   -0.0   -0.2
H    -0.2    1.6   -0.9
H    -1.6    0.6   -0.8
N    -1.0    0.6    2.1
C    -1.4    0.9    3.5
C    -0.1    1.2    4.3
O     0.7    0.3    4.5
H    -0.6   -0.3    1.9
H    -2.0    1.8    3.4
C    -2.2   -0.2    4.1
C    -3.5   -0.6    3.4
C    -4.6    0.4    3.6
N    -5.3    0.8    2.3
C    -4.6    1.5    1.4
N    -4.3    2.8    1.8
N    -4.5    1.0    0.2
H    -2.4    0.1    5.2
H    -1.5   -1.1    4.2
H    -3.2   -0.7    2.3
H    -3.8   -1.6    3.7
H    -4.2    1.4    4.0
H    -5.3    0.0    4.3
H    -5.7   -0.1    1.9
H    -3.3    3.1    1.5
H    -4.5    3.0    2.7
H    -4.1    1.8   -0.5
N     0.1    2.5    4.7
C    -0.7    3.6    4.4
H     1.0    2.6    5.2
H    -0.1    4.5    4.6
H    -1.6    3.7    5.0
H    -0.9    3.7    3.4
