          35
 sphere cut out from bulk 
C     0.4   -1.4    0.5
C     0.2   -0.6    1.7
O     1.1   -0.2    2.4
H    -0.5   -2.1    0.3
H     1.2   -2.1    0.6
H     0.5   -0.8   -0.4
N    -1.1   -0.2    2.0
C    -1.6    0.5    3.1
C    -1.3    2.0    3.0
O    -0.5    2.5    2.2
H    -1.8   -0.9    1.6
H    -2.7    0.4    3.1
C    -1.1   -0.1    4.5
C    -1.9   -1.4    4.9
C    -1.5   -2.6    4.1
N    -2.6   -3.6    3.8
C    -3.5   -3.4    2.8
N    -4.6   -4.2    2.8
N    -3.3   -2.4    1.9
H    -1.2    0.6    5.3
H    -0.1   -0.3    4.4
H    -3.0   -1.2    4.7
H    -1.8   -1.6    6.0
H    -0.8   -3.2    4.7
H    -1.1   -2.4    3.1
H    -3.1   -4.0    4.6
H    -5.1   -4.2    1.9
H    -4.4   -5.2    3.1
H    -3.9   -2.5    1.1
N    -1.9    2.8    3.9
C    -3.2    2.5    4.6
H    -1.7    3.8    3.7
H    -3.1    1.7    5.3
H    -4.0    2.4    3.9
H    -3.4    3.4    5.2
