          35
 sphere cut out from bulk 
C    -0.6    1.2    0.3
C    -0.7    0.6    1.7
O     0.3    0.1    2.3
H    -1.0    2.2    0.3
H    -1.0    0.6   -0.4
H     0.5    1.3    0.1
N    -1.9    0.5    2.3
C    -3.2    0.6    1.6
C    -4.3    1.1    2.6
O    -4.7    2.2    2.5
H    -1.9    0.1    3.2
H    -3.1    1.5    0.9
C    -3.6   -0.6    0.8
C    -2.7   -1.9    0.8
C    -2.8   -2.6    2.2
N    -1.8   -3.6    2.3
C    -0.9   -3.7    3.4
N    -0.5   -2.4    3.9
N    -0.4   -4.7    3.9
H    -3.7   -0.3   -0.3
H    -4.7   -0.9    1.1
H    -1.7   -1.6    0.7
H    -3.0   -2.5    0.0
H    -3.8   -3.1    2.3
H    -2.7   -1.9    3.0
H    -2.0   -4.6    2.0
H    -0.2   -1.7    3.2
H     0.2   -2.5    4.6
H    -0.8   -5.6    3.6
N    -4.6    0.2    3.6
C    -5.6    0.5    4.6
H    -4.3   -0.7    3.5
H    -5.7    1.6    4.6
H    -5.2    0.2    5.6
H    -6.5    0.1    4.4
