          35
 sphere cut out from bulk 
C    -0.8    0.8   -0.6
C    -0.4    0.8    0.8
O     0.8    1.1    1.2
H     0.1    1.1   -1.2
H    -1.6    1.6   -0.8
H    -1.2   -0.1   -1.0
N    -1.4    0.5    1.7
C    -2.7    0.0    1.5
C    -3.7    0.6    2.5
O    -4.4   -0.1    3.3
H    -1.0    0.4    2.7
H    -3.0    0.4    0.5
C    -2.9   -1.5    1.4
C    -2.3   -2.2    2.6
C    -3.2   -3.5    3.0
N    -2.9   -4.0    4.3
C    -3.4   -3.5    5.5
N    -4.4   -2.5    5.3
N    -3.1   -3.8    6.7
H    -2.4   -1.9    0.5
H    -3.9   -1.7    1.3
H    -2.3   -1.6    3.5
H    -1.3   -2.5    2.5
H    -3.0   -4.3    2.3
H    -4.2   -3.2    2.9
H    -2.1   -4.6    4.4
H    -4.6   -2.1    6.2
H    -4.3   -1.8    4.6
H    -2.4   -4.6    6.7
N    -3.8    2.0    2.6
C    -3.1    3.0    1.8
H    -4.4    2.3    3.3
H    -3.6    3.9    1.9
H    -3.2    2.7    0.7
H    -2.1    3.1    2.0
