          35
 sphere cut out from bulk 
C    -0.3    1.1   -0.4
C    -0.5   -0.2    0.4
O     0.4   -1.1    0.5
H     0.6    0.9   -1.0
H    -0.1    1.9    0.2
H    -1.1    1.3   -1.1
N    -1.7   -0.3    1.0
C    -2.8    0.6    1.0
C    -2.5    2.0    1.7
O    -3.0    3.0    1.2
H    -1.9   -1.2    1.5
H    -3.1    0.9    0.0
C    -4.0    0.0    1.7
C    -4.5   -1.3    1.1
C    -5.1   -2.3    2.1
N    -4.4   -2.5    3.4
C    -3.1   -2.8    3.5
N    -2.8   -3.0    4.8
N    -2.3   -2.9    2.5
H    -4.8    0.8    1.7
H    -3.8   -0.2    2.8
H    -3.7   -1.8    0.6
H    -5.3   -1.1    0.3
H    -5.2   -3.3    1.6
H    -6.2   -2.0    2.3
H    -4.9   -2.1    4.2
H    -1.8   -3.4    5.0
H    -3.4   -3.5    5.4
H    -1.4   -3.3    2.7
N    -1.8    2.0    2.8
C    -1.1    1.0    3.6
H    -1.6    3.0    3.2
H    -0.8    1.4    4.6
H    -0.2    0.6    3.1
H    -1.8    0.1    3.8
