          35
 sphere cut out from bulk 
C     0.8    0.4    0.1
C     0.4    0.3    1.6
O     1.2    0.6    2.5
H     0.1   -0.1   -0.6
H     1.8   -0.1    0.0
H     1.0    1.4   -0.2
N    -0.9   -0.0    1.8
C    -1.5    0.1    3.1
C    -1.2    1.4    3.7
O    -1.6    2.4    3.1
H    -1.5   -0.1    0.9
H    -2.6    0.2    2.8
C    -1.5   -1.3    3.9
C    -0.2   -2.1    3.8
C    -0.2   -3.4    4.7
N    -0.5   -3.2    6.1
C     0.6   -2.8    6.9
N     0.1   -2.5    8.2
N     1.8   -2.6    6.5
H    -2.3   -1.9    3.5
H    -1.7   -1.0    4.9
H     0.7   -1.5    4.2
H     0.0   -2.4    2.8
H     0.7   -3.9    4.5
H    -1.1   -4.0    4.3
H    -1.4   -2.9    6.4
H     0.9   -2.4    8.9
H    -0.6   -3.2    8.6
H     2.4   -2.4    7.2
N    -0.7    1.6    4.9
C     0.3    0.7    5.6
H    -0.6    2.6    5.2
H     0.8    1.3    6.4
H     1.1    0.4    5.0
H    -0.2   -0.1    6.1
