          35
 sphere cut out from bulk 
C     0.2   -0.7    0.6
C    -0.4   -0.9    1.9
O    -0.2   -1.8    2.7
H     1.3   -0.6    0.7
H    -0.1    0.1   -0.0
H     0.1   -1.7    0.0
N    -1.2    0.1    2.3
C    -1.9    0.3    3.6
C    -2.7    1.6    3.5
O    -2.5    2.4    2.7
H    -1.3    1.0    1.7
H    -2.5   -0.6    3.7
C    -0.9    0.3    4.8
C     0.4    1.1    4.6
C     1.4    1.0    5.7
N     1.7   -0.3    6.2
C     2.7   -1.1    5.5
N     2.5   -1.2    4.1
N     3.7   -1.8    6.0
H    -0.6   -0.8    5.0
H    -1.4    0.6    5.7
H     0.1    2.2    4.5
H     0.9    0.8    3.6
H     1.0    1.5    6.6
H     2.3    1.6    5.4
H     1.9   -0.4    7.2
H     3.2   -1.9    3.7
H     1.6   -1.4    3.8
H     3.8   -1.5    7.0
N    -3.7    1.7    4.4
C    -4.1    0.8    5.5
H    -4.2    2.6    4.3
H    -5.2    0.9    5.6
H    -3.6    1.0    6.4
H    -4.0   -0.2    5.2
