          35
 sphere cut out from bulk 
C    -0.3   -1.8    1.1
C    -0.1   -0.5    1.8
O     1.0   -0.0    1.9
H     0.1   -2.6    1.8
H     0.2   -1.9    0.2
H    -1.4   -2.0    1.0
N    -1.2    0.2    2.1
C    -1.4    1.5    2.8
C    -1.9    2.6    1.9
O    -3.0    3.2    2.2
H    -2.1   -0.2    1.9
H    -2.3    1.3    3.5
C    -0.2    1.9    3.7
C    -0.6    3.0    4.7
C     0.6    3.5    5.6
N     1.2    2.5    6.4
C     0.6    2.0    7.5
N     1.3    0.9    8.1
N    -0.5    2.5    8.0
H     0.6    2.2    3.1
H     0.1    1.0    4.3
H    -1.4    2.7    5.4
H    -1.0    3.9    4.2
H     0.2    4.3    6.2
H     1.3    4.0    4.9
H     1.8    1.8    5.9
H     2.3    1.0    8.0
H     1.0    0.7    9.0
H    -0.7    2.1    8.9
N    -1.2    3.1    0.9
C     0.0    2.5    0.3
H    -1.6    3.8    0.3
H     0.7    3.4   -0.1
H    -0.2    1.9   -0.6
H     0.6    1.9    1.0
