          35
 sphere cut out from bulk 
C    -2.1    0.5    0.1
C    -1.9    0.3    1.6
O    -2.3    1.1    2.4
H    -1.7   -0.3   -0.5
H    -1.6    1.4   -0.2
H    -3.2    0.7   -0.1
N    -1.3   -0.9    1.9
C    -0.9   -1.2    3.3
C     0.5   -1.8    3.2
O     0.9   -2.4    2.2
H    -0.8   -1.5    1.2
H    -0.9   -0.3    3.8
C    -1.8   -2.3    3.9
C    -3.3   -1.9    4.0
C    -3.6   -0.7    5.0
N    -5.0   -0.5    5.1
C    -5.6    0.5    6.0
N    -4.7    1.1    6.9
N    -6.8    0.8    6.0
H    -1.4   -2.5    4.9
H    -1.7   -3.2    3.4
H    -3.9   -2.7    4.4
H    -3.7   -1.6    3.0
H    -3.0    0.2    4.6
H    -3.1   -0.9    6.0
H    -5.5   -0.7    4.3
H    -5.2    1.8    7.4
H    -3.8    1.4    6.5
H    -7.4    0.1    5.5
N     1.3   -1.6    4.3
C     2.6   -2.1    4.5
H     0.9   -1.1    5.1
H     3.4   -1.3    4.6
H     2.9   -2.7    3.6
H     2.7   -2.8    5.3
