          35
 sphere cut out from bulk 
C     0.3    0.6    1.6
C    -0.3   -0.2    2.8
O     0.4   -0.6    3.7
H     0.3    1.7    1.9
H    -0.2    0.5    0.7
H     1.4    0.3    1.5
N    -1.7   -0.5    2.7
C    -2.7    0.0    1.8
C    -2.7   -0.7    0.5
O    -3.4   -0.2   -0.5
H    -2.0   -0.9    3.6
H    -3.7   -0.3    2.3
C    -2.8    1.5    1.7
C    -2.9    2.3    3.0
C    -3.0    3.8    2.8
N    -2.0    4.4    1.9
C    -0.7    4.5    2.2
N     0.1    4.9    1.1
N    -0.1    4.2    3.4
H    -3.8    1.7    1.1
H    -2.0    1.9    1.1
H    -2.0    2.1    3.6
H    -3.8    2.0    3.6
H    -2.9    4.3    3.8
H    -4.0    4.1    2.4
H    -2.2    4.3    0.9
H     1.1    5.1    1.4
H    -0.3    5.7    0.6
H    -0.7    3.9    4.0
N    -2.0   -1.8    0.4
C    -1.9   -2.6   -0.8
H    -1.5   -2.1    1.2
H    -2.3   -3.6   -0.7
H    -0.9   -2.7   -1.2
H    -2.6   -2.1   -1.6
