          35
 sphere cut out from bulk 
C    -0.4   -0.1    2.5
C    -1.7   -0.5    3.2
O    -1.7   -0.8    4.4
H     0.4   -0.1    3.3
H    -0.4    0.9    2.0
H    -0.1   -0.8    1.8
N    -2.8   -0.4    2.5
C    -3.1    0.4    1.3
C    -2.4   -0.2    0.1
O    -2.0   -1.4    0.0
H    -3.6   -0.7    3.1
H    -4.2    0.1    1.1
C    -3.0    1.9    1.5
C    -3.3    2.4    2.9
C    -4.8    2.1    3.4
N    -4.9    2.3    4.8
C    -5.2    1.2    5.7
N    -4.5    0.0    5.3
N    -6.0    1.4    6.6
H    -3.6    2.4    0.8
H    -2.0    2.2    1.2
H    -3.1    3.5    3.0
H    -2.6    1.9    3.6
H    -5.0    1.1    3.1
H    -5.5    2.8    2.9
H    -5.5    3.1    5.1
H    -4.7   -0.7    6.0
H    -3.5    0.1    5.2
H    -6.0    0.6    7.3
N    -2.3    0.6   -1.0
C    -1.7    0.2   -2.3
H    -2.6    1.6   -0.9
H    -2.4    0.4   -3.1
H    -1.5   -0.8   -2.2
H    -0.8    0.8   -2.5
