          35
 sphere cut out from bulk 
C    -0.1    0.0   -0.1
C     0.1   -0.0    1.4
O     1.3   -0.1    1.8
H     0.8    0.2   -0.6
H    -0.8    0.8   -0.4
H    -0.6   -0.9   -0.4
N    -0.9    0.0    2.2
C    -2.4   -0.1    2.0
C    -3.0    1.0    2.9
O    -3.5    0.8    4.0
H    -0.7   -0.1    3.2
H    -2.5    0.2    0.9
C    -3.0   -1.4    2.2
C    -2.5   -2.6    1.4
C    -1.2   -3.3    2.0
N    -0.8   -4.4    1.3
C    -1.5   -5.6    1.1
N    -2.4   -5.9    2.1
N    -1.5   -6.4    0.0
H    -4.1   -1.3    2.0
H    -3.0   -1.6    3.3
H    -2.2   -2.3    0.4
H    -3.2   -3.4    1.3
H    -1.5   -3.6    3.0
H    -0.4   -2.6    2.1
H    -0.2   -4.2    0.5
H    -2.8   -6.8    2.0
H    -2.0   -5.8    3.1
H    -0.9   -6.0   -0.7
N    -3.1    2.3    2.4
C    -2.5    2.8    1.1
H    -3.5    3.0    3.0
H    -1.4    2.8    1.1
H    -2.8    3.9    1.0
H    -2.9    2.3    0.2
