          35
 sphere cut out from bulk 
C    -0.2   -0.2    0.1
C    -0.1    0.0    1.6
O     0.9    0.2    2.1
H     0.3   -1.2   -0.2
H     0.4    0.6   -0.4
H    -1.2   -0.2   -0.3
N    -1.3   -0.0    2.2
C    -1.5    0.0    3.7
C    -0.7    1.2    4.3
O    -0.0    1.1    5.3
H    -2.2   -0.2    1.7
H    -2.5    0.2    3.9
C    -1.1   -1.3    4.4
C    -1.8   -2.5    3.9
C    -3.3   -2.5    4.2
N    -4.0   -3.8    3.9
C    -3.8   -5.0    4.5
N    -3.5   -4.9    5.8
N    -3.9   -6.0    3.8
H    -1.2   -1.1    5.4
H     0.0   -1.4    4.2
H    -1.4   -3.4    4.3
H    -1.7   -2.7    2.8
H    -3.8   -1.7    3.6
H    -3.5   -2.3    5.2
H    -4.2   -3.9    2.9
H    -3.0   -5.7    6.2
H    -3.2   -4.0    6.2
H    -3.8   -6.9    4.4
N    -0.9    2.5    3.8
C    -1.7    2.9    2.6
H    -0.3    3.2    4.2
H    -1.9    4.0    2.8
H    -2.6    2.4    2.6
H    -1.2    2.7    1.7
