          35
 sphere cut out from bulk 
C    -1.3   -1.1    2.2
C    -2.0   -0.5    3.4
O    -1.7   -0.9    4.5
H    -2.0   -1.9    1.7
H    -0.4   -1.6    2.5
H    -1.2   -0.3    1.4
N    -3.0    0.4    3.3
C    -3.5    1.1    2.1
C    -3.9    0.1    1.0
O    -3.5    0.2   -0.2
H    -3.4    0.7    4.2
H    -4.5    1.5    2.4
C    -2.6    2.2    1.5
C    -2.4    3.3    2.6
C    -1.4    4.4    2.1
N    -2.0    5.1    0.9
C    -1.6    6.4    0.5
N    -0.7    7.0    1.4
N    -2.0    7.0   -0.5
H    -3.1    2.6    0.6
H    -1.7    1.8    1.2
H    -1.9    2.9    3.5
H    -3.4    3.8    2.9
H    -0.5    3.9    1.8
H    -1.3    5.1    2.9
H    -2.4    4.6    0.2
H    -0.4    7.9    1.0
H     0.1    6.5    1.7
H    -2.8    6.5   -1.0
N    -4.8   -0.9    1.3
C    -5.5   -1.2    2.6
H    -5.0   -1.5    0.5
H    -4.8   -1.7    3.3
H    -6.3   -1.8    2.4
H    -5.8   -0.2    3.0
