          35
 sphere cut out from bulk 
C     0.2   -0.2    0.6
C    -0.4   -1.3    1.4
O     0.0   -2.5    1.4
H     1.1   -0.6    0.1
H     0.6    0.6    1.3
H    -0.5    0.2   -0.1
N    -1.5   -1.0    2.1
C    -2.3    0.2    2.2
C    -2.7    0.4    3.6
O    -3.9    0.0    4.0
H    -2.0   -1.8    2.6
H    -1.6    1.0    1.9
C    -3.4    0.3    1.2
C    -4.0    1.7    0.8
C    -4.6    2.4    2.0
N    -5.8    1.7    2.6
C    -7.0    2.3    2.9
N    -7.4    3.4    2.0
N    -7.8    2.0    3.8
H    -4.3   -0.4    1.6
H    -3.1   -0.2    0.2
H    -4.7    1.6    0.0
H    -3.1    2.3    0.4
H    -5.0    3.4    1.6
H    -3.9    2.7    2.8
H    -5.5    1.0    3.2
H    -8.3    3.6    2.2
H    -7.2    3.1    1.0
H    -7.3    1.4    4.5
N    -1.8    0.9    4.5
C    -0.5    1.3    4.2
H    -2.2    0.9    5.5
H     0.2    0.4    4.0
H    -0.0    1.7    5.2
H    -0.4    2.1    3.5
