          35
 sphere cut out from bulk 
C     0.1    1.0    0.4
C    -0.0    0.7    1.9
O     0.8    1.2    2.8
H     1.2    0.9    0.2
H    -0.2    2.0    0.3
H    -0.5    0.3   -0.2
N    -1.1   -0.0    2.3
C    -1.5   -0.2    3.7
C    -1.6    1.2    4.3
O    -2.4    2.0    3.8
H    -1.8   -0.2    1.6
H    -2.6   -0.4    3.6
C    -0.9   -1.4    4.3
C     0.6   -1.8    4.1
C     1.1   -3.0    4.8
N     0.4   -4.2    4.3
C     0.2   -5.4    4.9
N     0.6   -5.4    6.2
N    -0.4   -6.5    4.5
H    -1.5   -2.3    4.0
H    -1.1   -1.4    5.4
H     1.2   -0.9    4.4
H     0.7   -1.9    3.0
H     0.8   -3.0    5.8
H     2.2   -3.1    4.7
H     0.3   -4.3    3.2
H     0.6   -6.4    6.6
H     1.6   -5.0    6.4
H    -0.8   -6.3    3.5
N    -0.9    1.5    5.5
C     0.3    1.0    6.0
H    -1.2    2.4    5.8
H     1.1    1.0    5.2
H     0.7    1.7    6.8
H     0.3   -0.0    6.4
