          35
 sphere cut out from bulk 
C    -1.1   -1.6   -0.8
C    -0.4   -1.0    0.4
O     0.9   -1.0    0.4
H    -0.6   -2.4   -1.2
H    -1.2   -0.8   -1.6
H    -2.2   -1.9   -0.5
N    -1.1   -0.4    1.4
C    -2.5   -0.2    1.6
C    -3.3   -1.5    1.7
O    -4.2   -1.8    0.9
H    -0.4    0.0    2.1
H    -2.6    0.3    2.6
C    -3.2    0.8    0.6
C    -2.6    2.2    0.6
C    -1.3    2.4   -0.1
N    -1.0    3.8   -0.2
C     0.3    4.3   -0.7
N     0.3    5.7   -0.9
N     1.3    3.6   -0.9
H    -4.2    0.8    0.9
H    -3.1    0.4   -0.4
H    -2.5    2.6    1.6
H    -3.4    2.9    0.1
H    -1.3    1.9   -1.1
H    -0.5    2.0    0.4
H    -1.8    4.4   -0.6
H     1.2    6.0   -1.1
H    -0.1    6.2   -0.1
H     1.1    2.6   -0.8
N    -2.9   -2.4    2.6
C    -1.8   -2.3    3.6
H    -3.4   -3.3    2.6
H    -0.8   -2.5    3.2
H    -2.0   -3.1    4.4
H    -1.8   -1.3    4.1
