          35
 sphere cut out from bulk 
C    -1.1    0.7    0.9
C    -0.8    0.1    2.2
O    -0.2    0.7    3.1
H    -1.3   -0.0    0.1
H    -0.4    1.4    0.6
H    -2.1    1.2    1.0
N    -1.1   -1.2    2.4
C    -1.1   -1.9    3.7
C    -0.0   -3.0    3.8
O    -0.1   -3.8    4.8
H    -1.7   -1.6    1.6
H    -0.7   -1.1    4.3
C    -2.5   -2.4    4.1
C    -2.8   -2.1    5.6
C    -3.1   -0.6    5.9
N    -4.4   -0.2    5.2
C    -4.5    0.5    4.1
N    -5.8    0.5    3.5
N    -3.5    1.1    3.4
H    -2.6   -3.5    3.9
H    -3.2   -1.9    3.5
H    -1.9   -2.4    6.2
H    -3.6   -2.7    5.9
H    -2.4    0.1    5.5
H    -3.2   -0.5    7.0
H    -5.2   -0.8    5.4
H    -5.8    1.2    2.8
H    -6.5    0.7    4.2
H    -2.6    1.0    3.9
N     0.9   -3.0    2.9
C     2.1   -3.9    2.9
H     0.9   -2.3    2.2
H     2.2   -4.5    2.0
H     1.9   -4.6    3.8
H     3.0   -3.4    3.1
