          35
 sphere cut out from bulk 
C    -0.1   -0.4   -0.5
C    -0.4   -0.5    1.0
O    -0.2   -1.4    1.7
H    -0.6    0.5   -1.0
H    -0.5   -1.3   -1.0
H     0.9   -0.4   -0.6
N    -1.1    0.7    1.5
C    -1.2    0.9    3.0
C    -2.6    0.7    3.5
O    -2.9    0.8    4.7
H    -1.1    1.5    0.9
H    -0.6    0.1    3.4
C    -0.6    2.2    3.4
C     0.9    2.2    3.6
C     1.3    1.5    4.9
N     0.9    2.2    6.1
C     0.2    1.5    7.2
N    -0.6    0.5    6.8
N     0.4    1.8    8.4
H    -1.1    2.5    4.3
H    -0.9    3.0    2.7
H     1.3    3.2    3.6
H     1.4    1.7    2.7
H     2.4    1.4    4.9
H     0.9    0.5    4.9
H     1.5    2.9    6.4
H    -1.3    0.7    6.0
H    -1.1    0.1    7.6
H     1.2    2.5    8.5
N    -3.6    0.3    2.6
C    -4.9    0.0    2.9
H    -3.2    0.1    1.6
H    -5.1    0.3    4.0
H    -5.1   -1.1    2.8
H    -5.6    0.6    2.3
