          35
 sphere cut out from bulk 
C     1.0   -2.3    0.9
C     0.9   -1.4    2.2
O     1.9   -0.8    2.6
H     1.6   -3.1    1.1
H     1.4   -1.7    0.1
H    -0.0   -2.6    0.6
N    -0.3   -1.3    2.8
C    -0.6   -0.6    4.0
C    -0.5    0.9    4.1
O    -1.4    1.6    4.6
H    -1.1   -1.7    2.3
H    -1.7   -0.8    4.1
C     0.1   -1.3    5.2
C    -0.1   -0.7    6.6
C    -1.5   -0.9    7.2
N    -2.6   -0.3    6.5
C    -3.6   -1.1    5.8
N    -4.1   -0.5    4.7
N    -4.0   -2.3    6.1
H     1.2   -1.3    5.0
H    -0.2   -2.4    5.2
H     0.1    0.4    6.6
H     0.6   -1.1    7.3
H    -1.5   -0.6    8.3
H    -1.7   -2.0    7.3
H    -2.3    0.5    6.0
H    -5.0   -0.8    4.5
H    -4.1    0.6    4.7
H    -3.5   -2.7    6.9
N     0.7    1.4    3.6
C     1.0    2.8    3.6
H     1.4    0.8    3.2
H     1.9    3.0    4.2
H     0.1    3.4    4.1
H     1.1    3.2    2.6
