          35
 sphere cut out from bulk 
C    -1.1    1.6    0.2
C    -0.7    1.2    1.6
O     0.4    1.6    2.1
H    -0.3    2.3   -0.2
H    -2.1    2.1    0.2
H    -1.1    0.7   -0.4
N    -1.5    0.3    2.3
C    -2.5   -0.6    1.7
C    -3.8    0.1    1.3
O    -4.4   -0.4    0.3
H    -1.1    0.1    3.2
H    -2.1   -1.0    0.8
C    -2.9   -1.7    2.7
C    -1.7   -2.5    3.4
C    -0.9   -3.5    2.5
N    -0.4   -3.0    1.2
C     0.5   -1.9    1.1
N     1.4   -1.7    2.1
N     0.5   -1.3   -0.1
H    -3.5   -2.4    2.2
H    -3.5   -1.2    3.6
H    -2.1   -3.0    4.2
H    -1.0   -1.8    3.8
H    -1.6   -4.3    2.2
H    -0.2   -4.0    3.1
H    -0.9   -3.1    0.4
H     1.2   -2.2    3.0
H     1.6   -0.7    2.3
H     1.3   -0.6   -0.1
N    -4.3    1.2    2.0
C    -3.9    1.8    3.2
H    -5.2    1.5    1.6
H    -3.6    1.1    4.0
H    -4.7    2.4    3.6
H    -3.0    2.5    3.0
