          35
 sphere cut out from bulk 
C    -2.1   -1.3    0.2
C    -1.5   -0.7    1.4
O    -0.5   -0.0    1.4
H    -1.4   -1.9   -0.3
H    -2.4   -0.5   -0.5
H    -3.0   -1.8    0.4
N    -2.2   -0.9    2.6
C    -1.8   -0.3    3.8
C    -1.6   -1.4    4.9
O    -2.3   -1.4    5.9
H    -3.0   -1.4    2.5
H    -0.8    0.1    3.6
C    -2.7    0.8    4.3
C    -4.2    0.5    4.3
C    -5.0    1.6    4.9
N    -6.5    1.4    4.8
C    -7.2    1.4    3.6
N    -6.7    2.4    2.7
N    -8.1    0.6    3.4
H    -2.5    1.7    3.6
H    -2.4    1.1    5.3
H    -4.4   -0.4    4.8
H    -4.5    0.3    3.2
H    -4.8    2.6    4.4
H    -4.8    1.7    6.0
H    -6.8    0.7    5.4
H    -7.3    2.5    1.9
H    -6.4    3.3    3.1
H    -8.6    0.8    2.6
N    -0.7   -2.4    4.7
C     0.3   -2.5    3.6
H    -0.6   -3.1    5.5
H    -0.1   -3.1    2.8
H     1.2   -3.0    4.0
H     0.5   -1.5    3.2
