          35
 sphere cut out from bulk 
C    -0.9    0.4   -0.7
C    -0.8    0.2    0.8
O     0.1   -0.5    1.2
H    -0.0    0.9   -1.1
H    -1.8    1.0   -1.0
H    -0.9   -0.6   -1.2
N    -1.8    0.8    1.5
C    -1.9    0.5    2.9
C    -3.4    0.3    3.2
O    -4.3    0.8    2.5
H    -2.6    1.1    1.1
H    -1.3   -0.4    3.1
C    -1.4    1.7    3.8
C     0.1    2.0    3.5
C     0.6    3.0    4.6
N     1.9    3.5    4.3
C     3.1    3.0    4.8
N     3.0    1.6    5.1
N     4.1    3.8    5.1
H    -1.5    1.4    4.9
H    -2.0    2.5    3.6
H     0.2    2.5    2.5
H     0.7    1.1    3.5
H     0.6    2.6    5.6
H    -0.1    3.9    4.6
H     2.0    4.5    4.2
H     3.9    1.2    5.4
H     2.6    1.1    4.4
H     4.9    3.3    5.4
N    -3.7   -0.5    4.3
C    -5.0   -0.8    4.8
H    -2.9   -0.9    4.8
H    -5.7   -0.3    4.1
H    -5.2   -0.4    5.8
H    -5.2   -1.9    4.8
