          35
 sphere cut out from bulk 
C     0.1    0.9    0.1
C    -0.0   -0.5    0.6
O     1.0   -1.3    0.6
H    -0.5    1.0   -0.9
H     1.1    1.1   -0.2
H    -0.3    1.7    0.8
N    -1.2   -0.9    1.2
C    -2.5   -0.2    1.1
C    -3.0    0.3    2.4
O    -4.1    0.9    2.4
H    -1.2   -1.9    1.5
H    -2.4    0.6    0.4
C    -3.5   -1.2    0.4
C    -3.8   -2.5    1.2
C    -3.6   -3.8    0.5
N    -2.3   -3.9   -0.2
C    -1.1   -3.9    0.4
N     0.0   -4.0   -0.4
N    -1.1   -3.8    1.7
H    -3.2   -1.4   -0.6
H    -4.5   -0.6    0.3
H    -4.9   -2.5    1.6
H    -3.2   -2.5    2.1
H    -4.4   -3.9   -0.3
H    -3.7   -4.6    1.2
H    -2.3   -3.6   -1.2
H     0.7   -3.4   -0.1
H    -0.2   -4.0   -1.4
H    -0.1   -4.0    2.0
N    -2.2    0.2    3.5
C    -2.5    0.6    4.8
H    -1.3   -0.3    3.3
H    -2.6   -0.2    5.5
H    -3.5    1.1    4.7
H    -1.8    1.4    5.2
