          35
 sphere cut out from bulk 
C    -0.7   -0.5   -0.1
C    -0.7    0.3    1.2
O     0.1    1.2    1.4
H     0.3   -0.9   -0.2
H    -0.9    0.2   -0.9
H    -1.4   -1.3   -0.1
N    -1.6   -0.2    2.2
C    -1.6    0.4    3.5
C    -1.0   -0.6    4.5
O    -1.6   -1.6    4.8
H    -2.1   -1.0    2.0
H    -1.1    1.4    3.5
C    -3.1    0.7    3.9
C    -3.8    1.8    3.1
C    -5.3    1.9    3.4
N    -6.0    0.7    2.9
C    -6.8   -0.0    3.7
N    -6.5   -0.1    5.1
N    -7.9   -0.7    3.4
H    -3.1    1.0    5.0
H    -3.6   -0.3    3.9
H    -3.6    1.5    2.0
H    -3.3    2.7    3.3
H    -5.7    2.8    2.8
H    -5.5    2.0    4.4
H    -6.3    0.7    2.0
H    -5.5   -0.2    5.2
H    -7.0   -0.7    5.6
H    -8.2   -0.5    2.4
N     0.3   -0.3    5.0
C     1.1    0.9    4.7
H     0.6   -1.0    5.6
H     1.0    1.2    3.6
H     2.1    0.6    4.9
H     0.8    1.8    5.3
