          35
 sphere cut out from bulk 
C     0.4    1.7    0.5
C    -0.0    0.7    1.5
O     0.5    0.7    2.6
H     1.4    1.5    0.2
H     0.3    2.7    0.8
H    -0.2    1.6   -0.5
N    -1.1   -0.2    1.2
C    -1.6   -1.2    2.1
C    -2.0   -0.6    3.5
O    -1.6   -1.1    4.5
H    -1.5   -0.1    0.3
H    -2.6   -1.4    1.6
C    -0.7   -2.4    2.2
C    -1.4   -3.7    2.7
C    -2.1   -4.5    1.6
N    -3.1   -3.8    0.8
C    -4.2   -3.2    1.4
N    -4.9   -4.0    2.4
N    -4.7   -2.1    0.8
H     0.1   -2.2    2.9
H    -0.3   -2.6    1.2
H    -0.7   -4.3    3.2
H    -2.1   -3.4    3.5
H    -2.5   -5.4    2.1
H    -1.4   -4.9    0.9
H    -2.8   -3.3    0.1
H    -5.4   -3.4    3.0
H    -4.4   -4.7    2.8
H    -5.6   -1.9    1.2
N    -2.8    0.5    3.5
C    -3.5    1.1    2.4
H    -3.0    0.8    4.5
H    -4.4    1.6    2.8
H    -3.8    0.4    1.7
H    -2.9    1.9    2.0
