          35
 sphere cut out from bulk 
C     3.6    0.0    4.3
C     2.1   -0.1    4.6
O     1.7   -0.1    5.8
H     4.0    0.9    4.8
H     4.1   -0.8    4.7
H     3.9    0.1    3.3
N     1.3   -0.2    3.5
C    -0.1   -0.4    3.5
C    -1.0    0.7    4.0
O    -2.1    1.0    3.4
H     1.8   -0.1    2.6
H    -0.3   -0.4    2.4
C    -0.5   -1.8    4.1
C    -0.1   -3.0    3.3
C    -1.0   -3.5    2.1
N    -1.0   -2.8    0.9
C    -1.4   -1.4    0.8
N    -2.7   -1.2    1.3
N    -0.7   -0.6    0.1
H    -1.6   -1.8    4.2
H    -0.1   -1.8    5.1
H     0.0   -3.9    4.0
H     1.0   -2.9    2.9
H    -0.7   -4.5    1.9
H    -2.0   -3.5    2.5
H    -0.1   -2.8    0.4
H    -2.7   -0.3    1.8
H    -3.1   -2.0    1.8
H    -1.3    0.3   -0.1
N    -0.7    1.3    5.2
C    -1.5    2.3    5.8
H     0.1    0.9    5.6
H    -0.8    3.1    6.1
H    -2.0    1.9    6.7
H    -2.2    2.6    5.1
