          35
 sphere cut out from bulk 
C     0.3    0.3   -0.1
C     0.1   -0.1    1.4
O     1.1   -0.7    2.0
H     1.1    1.1   -0.1
H    -0.6    0.8   -0.5
H     0.6   -0.5   -0.7
N    -1.1    0.1    1.9
C    -1.5   -0.5    3.2
C    -2.9   -1.0    3.0
O    -3.6   -0.7    2.1
H    -1.9    0.3    1.3
H    -0.8   -1.2    3.4
C    -1.5    0.6    4.3
C    -0.1    1.2    4.6
C     0.1    1.7    6.0
N     0.2    0.7    7.0
C    -0.9    0.2    7.8
N    -0.6   -0.9    8.6
N    -2.1    0.8    7.7
H    -1.9    0.1    5.2
H    -2.2    1.4    4.1
H     0.1    2.0    3.9
H     0.7    0.4    4.4
H    -0.8    2.3    6.3
H     1.0    2.3    6.1
H     0.9   -0.0    6.9
H    -1.2   -1.1    9.3
H     0.4   -0.8    9.0
H    -2.7    0.4    8.4
N    -3.3   -1.9    4.0
C    -2.6   -2.4    5.2
H    -4.3   -2.2    3.9
H    -3.1   -3.4    5.4
H    -2.8   -1.7    6.0
H    -1.6   -2.5    4.9
