          35
 sphere cut out from bulk 
C     0.0    0.5   -0.3
C    -0.3    1.0    1.1
O    -0.1    2.2    1.4
H     1.1    0.6   -0.5
H    -0.5    1.2   -1.0
H    -0.3   -0.5   -0.4
N    -0.8    0.1    2.0
C    -1.0    0.3    3.4
C    -1.6    1.7    3.7
O    -1.2    2.5    4.5
H    -0.8   -0.9    1.7
H    -1.7   -0.4    3.8
C     0.3    0.2    4.2
C     0.1   -0.1    5.7
C     1.4   -0.2    6.5
N     1.2   -0.5    7.9
C     2.2   -0.8    8.8
N     1.8   -0.8   10.1
N     3.5   -1.0    8.5
H     0.9    1.1    4.1
H     0.9   -0.7    3.8
H    -0.5   -1.0    5.9
H    -0.4    0.8    6.2
H     2.1    0.7    6.3
H     2.0   -1.1    6.1
H     0.5    0.1    8.3
H     2.6   -1.2   10.7
H     1.0   -1.3   10.3
H     3.7   -0.8    7.5
N    -2.9    1.9    3.1
C    -3.6    1.2    2.1
H    -3.2    2.9    3.3
H    -4.6    1.4    2.2
H    -3.5    0.1    2.4
H    -3.2    1.3    1.1
