          35
 sphere cut out from bulk 
C    -2.6    1.5    0.3
C    -1.5    0.8    0.9
O    -0.3    1.2    1.0
H    -3.2    0.9   -0.4
H    -2.2    2.4   -0.3
H    -3.4    1.9    1.0
N    -1.8   -0.4    1.6
C    -3.1   -1.0    1.8
C    -4.0   -0.4    2.9
O    -5.2   -0.4    2.7
H    -1.0   -0.8    2.0
H    -3.7   -0.8    0.8
C    -3.0   -2.5    1.9
C    -2.5   -3.3    0.7
C    -3.2   -3.0   -0.6
N    -4.6   -3.1   -0.5
C    -5.5   -2.1   -0.8
N    -6.8   -2.4   -0.7
N    -5.0   -0.9   -1.1
H    -4.1   -2.9    2.1
H    -2.5   -2.7    2.8
H    -2.5   -4.3    1.0
H    -1.4   -3.0    0.6
H    -2.8   -3.6   -1.4
H    -3.0   -2.0   -0.9
H    -5.0   -4.0   -0.6
H    -7.5   -1.6   -0.7
H    -7.0   -3.0    0.1
H    -5.8   -0.2   -1.1
N    -3.5    0.2    4.0
C    -2.1    0.2    4.5
H    -4.2    0.5    4.6
H    -1.6   -0.8    4.4
H    -2.1    0.5    5.5
H    -1.5    0.9    3.9
