          35
 sphere cut out from bulk 
C    -1.1   -2.2    4.9
C    -0.4   -1.5    3.7
O    -0.5   -1.9    2.6
H    -2.2   -2.3    4.6
H    -0.9   -1.8    5.8
H    -0.7   -3.3    4.9
N     0.3   -0.4    4.0
C     1.0    0.4    3.1
C     2.4   -0.1    2.8
O     3.4    0.4    3.2
H     0.4   -0.2    5.0
H     0.4    0.3    2.1
C     1.1    1.9    3.5
C    -0.3    2.6    3.5
C    -0.3    4.0    4.1
N     0.5    4.9    3.3
C     0.5    6.3    3.4
N    -0.6    6.8    4.1
N     1.2    7.1    2.7
H     1.8    2.4    2.8
H     1.5    1.9    4.5
H    -1.0    2.0    4.1
H    -0.7    2.6    2.5
H     0.1    3.9    5.2
H    -1.3    4.4    4.2
H     1.4    4.5    3.0
H    -0.6    7.8    4.2
H    -0.7    6.4    5.0
H     1.8    6.6    2.1
N     2.4   -1.3    2.1
C     3.6   -2.1    1.8
H     1.5   -1.7    1.9
H     4.5   -1.4    2.0
H     3.6   -2.3    0.7
H     3.6   -3.0    2.4
