          35
 sphere cut out from bulk 
C    -1.5   -1.6    0.1
C    -0.8   -1.3    1.4
O     0.1   -2.0    1.9
H    -1.6   -2.7   -0.0
H    -0.7   -1.3   -0.7
H    -2.4   -1.1   -0.1
N    -1.4   -0.3    2.2
C    -0.8    0.2    3.4
C    -1.3   -0.4    4.7
O    -0.7   -0.1    5.8
H    -2.0    0.3    1.7
H     0.3    0.0    3.3
C    -1.0    1.8    3.4
C     0.1    2.5    4.3
C    -0.2    4.0    4.4
N    -0.2    4.7    3.1
C    -1.4    4.9    2.3
N    -2.5    5.1    3.0
N    -1.2    4.8    1.0
H    -2.0    2.0    3.8
H    -0.9    2.1    2.4
H     1.1    2.4    3.9
H     0.1    2.1    5.3
H     0.6    4.5    5.0
H    -1.2    4.2    4.9
H     0.6    4.5    2.5
H    -3.3    5.4    2.4
H    -2.4    5.7    3.8
H    -2.1    5.0    0.5
N    -2.3   -1.3    4.5
C    -2.9   -2.0    5.7
H    -2.6   -1.5    3.6
H    -3.9   -1.9    5.7
H    -2.4   -1.6    6.6
H    -2.6   -3.1    5.6
