          35
 sphere cut out from bulk 
C     0.1    1.4    1.2
C    -0.1    0.3    2.3
O     0.8    0.1    3.2
H    -0.7    2.1    1.3
H    -0.0    0.9    0.2
H     1.1    1.8    1.3
N    -1.2   -0.5    2.2
C    -2.4   -0.3    1.3
C    -3.2    0.9    1.5
O    -3.6    1.6    0.5
H    -1.2   -1.2    3.0
H    -2.0   -0.3    0.3
C    -3.2   -1.6    1.4
C    -4.4   -1.6    0.5
C    -5.2   -2.9    0.6
N    -6.4   -2.9   -0.3
C    -7.3   -3.9   -0.4
N    -6.7   -5.2   -0.3
N    -8.6   -3.6   -0.5
H    -3.6   -1.7    2.5
H    -2.6   -2.5    1.2
H    -4.1   -1.5   -0.5
H    -5.1   -0.8    0.7
H    -5.5   -3.1    1.7
H    -4.6   -3.8    0.3
H    -6.9   -2.0   -0.2
H    -7.4   -5.9   -0.6
H    -5.8   -5.3   -0.7
H    -9.1   -4.5   -0.6
N    -3.5    1.4    2.8
C    -3.1    0.8    4.1
H    -4.0    2.2    2.8
H    -2.1    1.0    4.4
H    -3.4   -0.3    4.2
H    -3.8    1.3    4.8
