          35
 sphere cut out from bulk 
C     0.9   -0.3    0.1
C     0.5   -0.6    1.5
O     1.0   -1.4    2.2
H     2.0   -0.0    0.1
H     0.4    0.5   -0.4
H     0.9   -1.2   -0.5
N    -0.6    0.2    1.9
C    -1.1    0.1    3.3
C    -2.0   -1.1    3.7
O    -2.1   -1.2    4.9
H    -0.9    0.9    1.3
H    -0.2    0.0    4.0
C    -1.8    1.5    3.7
C    -3.0    1.9    2.9
C    -4.3    1.2    3.3
N    -5.5    1.7    2.7
C    -6.1    2.9    3.1
N    -7.1    3.3    2.2
N    -5.8    3.6    4.1
H    -1.0    2.2    3.6
H    -2.0    1.4    4.8
H    -2.9    1.7    1.8
H    -3.2    3.0    3.0
H    -4.4    1.3    4.4
H    -4.3    0.1    3.1
H    -5.6    1.4    1.7
H    -7.6    4.1    2.5
H    -7.8    2.5    1.9
H    -5.0    3.3    4.6
N    -2.6   -1.9    2.8
C    -2.5   -1.9    1.4
H    -3.0   -2.7    3.3
H    -3.3   -2.7    1.1
H    -1.6   -2.3    1.0
H    -2.8   -1.0    0.9
