          35
 sphere cut out from bulk 
C    -0.1   -0.1   -0.2
C    -0.1   -0.5    1.3
O     0.9   -0.9    1.8
H     0.5   -0.9   -0.8
H     0.4    0.8   -0.3
H    -1.1   -0.0   -0.7
N    -1.4   -0.4    1.9
C    -1.6   -0.5    3.3
C    -0.4    0.2    4.1
O    -0.1    1.3    3.8
H    -2.1    0.0    1.3
H    -2.4    0.2    3.5
C    -2.1   -1.9    3.8
C    -1.7   -3.2    3.1
C    -0.2   -3.6    3.2
N     0.4   -3.5    4.5
C     1.8   -3.4    4.7
N     2.5   -2.7    3.7
N     2.2   -4.0    5.8
H    -3.2   -1.8    3.7
H    -2.0   -1.9    4.9
H    -2.0   -3.2    2.1
H    -2.3   -4.0    3.6
H     0.3   -2.9    2.5
H    -0.1   -4.6    2.8
H    -0.0   -4.2    5.2
H     3.4   -2.5    4.0
H     2.0   -2.0    3.2
H     3.2   -3.8    5.9
N     0.2   -0.6    5.1
C     1.3   -0.0    5.8
H     0.1   -1.6    5.0
H     1.6   -0.8    6.6
H     1.0    0.9    6.3
H     2.1    0.2    5.2
