          35
 sphere cut out from bulk 
C    -1.4    0.2    1.3
C    -1.5    1.0    2.6
O    -0.6    1.2    3.3
H    -1.2   -0.8    1.6
H    -0.5    0.6    0.8
H    -2.2    0.3    0.6
N    -2.8    1.4    3.0
C    -4.0    1.6    2.3
C    -4.5    0.4    1.4
O    -4.7    0.6    0.2
H    -2.7    1.9    3.9
H    -4.8    1.6    3.1
C    -4.1    2.9    1.6
C    -3.0    3.2    0.6
C    -2.5    4.6    0.6
N    -1.1    4.8    0.1
C    -0.1    4.0    0.7
N    -0.0    4.1    2.1
N     0.7    3.3   -0.1
H    -4.1    3.7    2.4
H    -5.1    3.0    1.2
H    -3.4    2.9   -0.4
H    -2.2    2.6    0.8
H    -2.5    5.0    1.6
H    -3.1    5.3   -0.0
H    -1.0    4.6   -0.9
H    -0.7    4.6    2.5
H     0.2    3.2    2.6
H     1.4    2.9    0.5
N    -4.5   -0.8    2.0
C    -4.3   -1.2    3.3
H    -4.8   -1.6    1.3
H    -4.8   -2.2    3.5
H    -4.7   -0.5    4.1
H    -3.2   -1.4    3.6
