          35
 sphere cut out from bulk 
C     0.1   -0.1    0.2
C    -0.2   -0.4    1.6
O     0.7   -0.7    2.4
H     1.2    0.1    0.1
H    -0.4    0.8   -0.2
H    -0.2   -0.9   -0.5
N    -1.5   -0.4    2.1
C    -2.7   -0.1    1.4
C    -2.9   -0.9    0.1
O    -3.0   -0.4   -1.0
H    -1.5   -0.6    3.1
H    -3.5   -0.4    2.1
C    -2.9    1.5    1.1
C    -4.3    1.9    1.2
C    -5.3    1.4    0.2
N    -6.7    1.9    0.5
C    -7.8    1.4   -0.2
N    -8.9    2.2    0.0
N    -7.8    0.4   -1.1
H    -2.5    1.7    0.1
H    -2.3    2.0    1.8
H    -4.3    3.0    1.2
H    -4.7    1.7    2.3
H    -5.4    0.3    0.3
H    -5.0    1.6   -0.8
H    -6.7    2.9    0.6
H    -9.7    1.7   -0.4
H    -9.1    2.4    1.0
H    -6.9    0.1   -1.3
N    -3.0   -2.2    0.2
C    -2.9   -3.0    1.5
H    -3.0   -2.8   -0.6
H    -3.3   -4.0    1.2
H    -3.5   -2.6    2.3
H    -1.8   -3.1    1.8
