          35
 sphere cut out from bulk 
C    -1.1   -0.3   -0.3
C    -0.9   -0.2    1.2
O     0.1   -0.5    1.8
H    -2.1    0.1   -0.6
H    -0.9   -1.3   -0.6
H    -0.3    0.3   -0.7
N    -2.0    0.1    1.9
C    -2.2    0.1    3.4
C    -1.6    1.4    4.1
O    -2.2    2.1    4.8
H    -2.9    0.3    1.4
H    -3.3    0.3    3.6
C    -1.8   -1.1    4.2
C    -2.5   -2.5    3.8
C    -1.9   -3.2    2.5
N    -0.5   -3.4    2.6
C     0.1   -4.6    2.9
N    -0.7   -5.6    3.4
N     1.4   -4.9    2.6
H    -2.0   -0.9    5.2
H    -0.7   -1.3    4.1
H    -3.6   -2.3    3.6
H    -2.5   -3.1    4.6
H    -2.1   -2.6    1.6
H    -2.4   -4.2    2.4
H     0.1   -2.7    2.3
H    -0.1   -6.4    3.6
H    -1.3   -5.3    4.1
H     1.8   -4.2    2.1
N    -0.2    1.5    3.8
C     0.5    2.6    4.3
H     0.2    0.8    3.2
H     1.0    3.2    3.5
H     1.3    2.2    5.0
H    -0.1    3.3    4.9
