          35
 sphere cut out from bulk 
C     0.2    0.9    0.6
C     0.1   -0.0    1.8
O     1.0   -0.4    2.5
H     0.0    0.4   -0.3
H     1.2    1.3    0.6
H    -0.5    1.7    0.7
N    -1.2   -0.5    2.0
C    -2.4   -0.4    1.2
C    -3.1    1.0    1.4
O    -3.8    1.5    0.5
H    -1.2   -1.2    2.8
H    -2.1   -0.4    0.1
C    -3.4   -1.5    1.6
C    -4.6   -1.6    0.7
C    -5.5   -2.8    1.0
N    -4.8   -4.0    0.8
C    -4.8   -5.1    1.6
N    -4.8   -4.8    3.0
N    -4.9   -6.3    1.1
H    -3.7   -1.4    2.6
H    -2.8   -2.4    1.5
H    -4.3   -1.6   -0.4
H    -5.2   -0.7    0.8
H    -6.4   -2.7    0.4
H    -5.8   -2.8    2.1
H    -4.9   -4.4   -0.2
H    -4.7   -5.5    3.6
H    -4.2   -4.0    3.2
H    -4.8   -7.0    1.9
N    -2.8    1.6    2.6
C    -3.3    3.0    2.9
H    -2.1    1.2    3.2
H    -2.5    3.7    3.0
H    -3.9    2.9    3.9
H    -4.0    3.2    2.1
