          35
 sphere cut out from bulk 
C    -0.0    0.3   -0.1
C     0.1   -0.2    1.3
O     1.2   -0.5    1.7
H     0.9    0.4   -0.6
H    -0.5    1.4   -0.2
H    -0.7   -0.3   -0.7
N    -1.0   -0.2    2.1
C    -2.4    0.0    1.8
C    -2.9    0.9    2.9
O    -3.5    0.4    3.9
H    -0.8   -0.6    3.0
H    -2.4    0.6    0.8
C    -3.2   -1.2    1.6
C    -2.8   -2.1    0.4
C    -3.6   -3.4    0.3
N    -3.3   -4.3    1.5
C    -4.3   -5.1    2.0
N    -3.8   -5.9    3.1
N    -5.5   -5.0    1.6
H    -4.3   -0.9    1.4
H    -3.2   -1.8    2.5
H    -1.7   -2.3    0.5
H    -2.9   -1.6   -0.6
H    -3.3   -4.0   -0.6
H    -4.6   -3.3    0.3
H    -2.4   -4.6    1.6
H    -4.5   -6.4    3.6
H    -3.2   -5.4    3.7
H    -6.1   -5.6    2.1
N    -2.8    2.2    2.8
C    -2.0    3.0    1.8
H    -3.1    2.7    3.7
H    -2.4    2.8    0.8
H    -1.0    2.8    1.9
H    -2.2    4.1    2.1
