          35
 sphere cut out from bulk 
C     0.0    0.7   -0.2
C     0.2    0.6    1.3
O     1.3    0.6    1.8
H    -0.7    1.6   -0.5
H    -0.4   -0.2   -0.7
H     1.0    1.0   -0.6
N    -0.9    0.4    2.1
C    -2.3    0.2    1.7
C    -2.5   -1.1    0.9
O    -2.3   -2.2    1.5
H    -0.7    0.2    3.0
H    -2.8   -0.1    2.7
C    -3.0    1.5    1.3
C    -4.6    1.4    1.4
C    -5.2    2.7    0.8
N    -6.7    2.6    1.0
C    -7.6    3.5    0.6
N    -7.1    4.9    0.8
N    -8.7    3.2    0.0
H    -2.8    1.8    0.2
H    -2.6    2.3    1.9
H    -4.8    1.3    2.5
H    -5.0    0.5    0.9
H    -5.0    2.8   -0.2
H    -4.9    3.6    1.4
H    -7.1    1.7    0.8
H    -7.8    5.6    0.6
H    -6.6    5.0    1.6
H    -9.3    4.0   -0.2
N    -3.0   -1.2   -0.4
C    -3.3   -0.2   -1.4
H    -3.0   -2.2   -0.7
H    -4.2    0.4   -1.1
H    -3.5   -0.7   -2.3
H    -2.5    0.5   -1.6
