          35
 sphere cut out from bulk 
C    -2.8   -0.6    0.1
C    -2.1   -0.7    1.4
O    -1.0   -1.3    1.6
H    -3.7   -0.1    0.1
H    -2.9   -1.6   -0.4
H    -2.1   -0.0   -0.6
N    -2.8   -0.1    2.4
C    -2.3   -0.2    3.8
C    -3.5   -0.1    4.7
O    -4.5    0.4    4.3
H    -3.7    0.2    2.3
H    -1.9   -1.3    3.9
C    -1.1    0.8    4.2
C    -1.2    2.1    3.5
C    -2.4    3.0    3.7
N    -3.1    2.9    5.0
C    -2.4    3.3    6.2
N    -3.2    3.0    7.4
N    -1.2    3.7    6.2
H    -0.2    0.3    3.9
H    -1.1    0.9    5.2
H    -1.1    2.0    2.4
H    -0.3    2.7    3.9
H    -3.2    2.8    3.0
H    -2.1    4.1    3.6
H    -3.9    2.3    5.1
H    -2.9    3.4    8.2
H    -4.2    3.2    7.2
H    -0.9    4.0    7.2
N    -3.4   -0.5    6.0
C    -2.2   -1.1    6.7
H    -4.2   -0.3    6.6
H    -1.6   -0.3    7.2
H    -1.6   -1.6    6.0
H    -2.6   -1.8    7.5
