          35
 sphere cut out from bulk 
C    -0.3    1.2    0.9
C    -0.2    0.9    2.4
O     0.7    1.4    3.1
H     0.1    2.2    0.7
H    -1.3    1.1    0.6
H     0.4    0.5    0.4
N    -1.1    0.1    2.9
C    -1.2   -0.4    4.3
C    -0.8    0.7    5.3
O    -0.0    0.5    6.3
H    -1.8   -0.3    2.3
H    -2.3   -0.6    4.5
C    -0.5   -1.7    4.6
C     1.1   -1.7    4.3
C     1.5   -2.0    2.9
N     2.6   -1.2    2.5
C     2.7   -0.6    1.2
N     3.3    0.6    1.2
N     2.2   -1.2    0.1
H    -0.9   -2.5    4.0
H    -0.7   -1.9    5.7
H     1.5   -2.4    5.0
H     1.5   -0.7    4.7
H     0.7   -1.8    2.2
H     1.7   -3.1    2.8
H     3.0   -0.6    3.2
H     3.4    0.9    0.2
H     3.0    1.3    1.8
H     1.9   -2.1    0.3
N    -1.5    1.9    5.3
C    -2.5    2.4    4.3
H    -1.2    2.5    6.0
H    -3.2    1.6    4.0
H    -2.0    2.8    3.4
H    -3.1    3.1    4.8
