          35
 sphere cut out from bulk 
C     0.3    1.7    0.8
C     0.1    1.0    2.1
O     1.1    1.0    2.9
H    -0.4    2.5    0.7
H     0.0    1.0   -0.1
H     1.3    2.1    0.6
N    -1.1    0.4    2.4
C    -2.3    0.5    1.6
C    -3.0    1.8    1.6
O    -3.5    2.2    0.5
H    -1.1    0.0    3.3
H    -2.1    0.2    0.6
C    -3.3   -0.6    2.1
C    -2.8   -2.0    1.8
C    -3.8   -3.1    2.3
N    -5.1   -3.0    1.6
C    -6.2   -3.7    2.0
N    -7.3   -3.5    1.1
N    -6.3   -4.4    3.1
H    -4.2   -0.4    1.6
H    -3.5   -0.5    3.2
H    -1.8   -2.2    2.3
H    -2.6   -2.2    0.8
H    -4.0   -3.0    3.4
H    -3.4   -4.1    2.2
H    -5.0   -3.0    0.6
H    -7.4   -2.6    0.8
H    -8.1   -4.0    1.5
H    -5.5   -4.5    3.6
N    -3.0    2.6    2.6
C    -2.6    2.4    4.0
H    -3.5    3.5    2.5
H    -3.0    3.2    4.6
H    -1.5    2.5    4.1
H    -2.9    1.4    4.4
