          35
 sphere cut out from bulk 
C    -0.1    0.2    0.1
C    -0.1   -0.1    1.6
O     1.0   -0.5    2.1
H     0.3   -0.6   -0.5
H     0.6    1.1   -0.1
H    -1.1    0.5   -0.3
N    -1.2   -0.0    2.3
C    -1.3   -0.2    3.7
C    -1.2   -1.6    4.3
O    -1.0   -1.7    5.5
H    -2.0    0.3    1.8
H    -0.5    0.3    4.2
C    -2.6    0.5    4.2
C    -3.9   -0.2    3.8
C    -5.2    0.6    4.3
N    -5.3    1.9    3.7
C    -5.4    3.1    4.3
N    -4.8    3.1    5.6
N    -6.0    4.2    3.9
H    -2.6    1.6    3.9
H    -2.5    0.5    5.3
H    -4.0   -1.2    4.2
H    -4.0   -0.3    2.7
H    -5.1    0.8    5.4
H    -6.1   -0.0    4.1
H    -5.8    1.9    2.8
H    -4.8    4.1    5.9
H    -3.9    2.7    5.6
H    -6.6    4.0    3.1
N    -1.4   -2.7    3.5
C    -1.7   -2.9    2.1
H    -1.3   -3.5    4.1
H    -0.8   -2.7    1.5
H    -2.6   -2.3    1.8
H    -2.0   -4.0    2.0
