          35
 sphere cut out from bulk 
C     0.2   -2.4    2.7
C     0.5   -1.0    3.1
O     1.6   -0.5    3.1
H     0.8   -3.1    3.3
H     0.7   -2.5    1.6
H    -0.8   -2.7    2.6
N    -0.6   -0.3    3.6
C    -0.6    1.1    3.9
C    -0.1    1.3    5.4
O    -0.8    1.7    6.3
H    -1.5   -0.8    3.5
H     0.1    1.6    3.2
C    -2.0    1.7    3.6
C    -3.2    1.5    4.5
C    -3.5    0.1    5.0
N    -3.4   -1.0    4.0
C    -4.3   -1.2    2.9
N    -5.0   -0.1    2.5
N    -4.4   -2.3    2.2
H    -2.2    1.4    2.5
H    -1.8    2.8    3.5
H    -4.0    2.0    3.9
H    -3.0    2.1    5.4
H    -4.5    0.2    5.5
H    -2.8   -0.1    5.8
H    -3.2   -1.9    4.5
H    -5.4    0.5    3.3
H    -5.7   -0.3    1.8
H    -3.7   -3.0    2.5
N     1.2    1.1    5.5
C     1.9    1.1    6.8
H     1.7    0.6    4.7
H     1.2    1.6    7.5
H     2.8    1.7    6.7
H     2.1    0.1    7.2
