          35
 sphere cut out from bulk 
C    -0.2   -0.1   -0.0
C    -0.1   -0.4    1.4
O     0.7   -1.2    1.9
H     0.8    0.2   -0.4
H    -0.9    0.8   -0.3
H    -0.5   -0.9   -0.6
N    -1.0    0.3    2.2
C    -1.3    0.1    3.6
C    -0.8    1.2    4.6
O    -1.5    1.6    5.6
H    -1.6    0.9    1.7
H    -2.4    0.4    3.7
C    -1.2   -1.3    4.2
C    -2.5   -2.1    4.3
C    -3.6   -1.4    5.1
N    -3.2   -0.9    6.4
C    -2.9   -1.7    7.5
N    -2.2   -1.0    8.5
N    -3.1   -3.0    7.6
H    -0.8   -1.2    5.2
H    -0.4   -1.8    3.6
H    -2.2   -3.1    4.7
H    -2.9   -2.2    3.2
H    -4.4   -2.1    5.3
H    -4.0   -0.6    4.6
H    -2.7   -0.0    6.3
H    -2.2   -1.6    9.3
H    -2.5   -0.1    8.6
H    -3.5   -3.4    6.8
N     0.5    1.6    4.5
C     1.6    1.3    3.7
H     0.7    2.3    5.3
H     1.5    0.2    3.4
H     2.5    1.4    4.2
H     1.6    1.9    2.7
