          35
 sphere cut out from bulk 
C    -2.4   -1.0    4.3
C    -1.5    0.1    3.9
O    -1.9    1.2    3.4
H    -2.9   -1.3    3.4
H    -3.2   -0.6    5.0
H    -1.9   -1.8    4.8
N    -0.2   -0.0    4.2
C     0.9    0.9    3.7
C     2.0    0.1    3.0
O     2.2   -1.1    3.4
H     0.2   -0.9    4.4
H     0.4    1.5    2.9
C     1.4    1.8    4.8
C     0.4    2.8    5.5
C    -0.2    3.8    4.5
N     0.7    4.3    3.5
C     0.8    3.8    2.2
N    -0.3    3.3    1.6
N     1.9    3.7    1.5
H     2.3    2.3    4.4
H     1.8    1.1    5.6
H     1.0    3.3    6.2
H    -0.4    2.2    6.0
H    -0.6    4.6    5.0
H    -1.1    3.3    4.0
H     1.6    4.7    3.8
H    -0.1    2.8    0.7
H    -1.1    2.8    2.1
H     2.7    4.2    2.0
N     2.7    0.7    2.1
C     3.8    0.1    1.4
H     2.4    1.7    1.8
H     3.8   -0.9    1.6
H     4.8    0.6    1.7
H     3.7    0.3    0.3
