          35
 sphere cut out from bulk 
C     1.6    0.6    0.7
C     1.0    0.1    2.0
O     1.7   -0.4    2.9
H     0.9    1.1    0.0
H     2.0   -0.3    0.2
H     2.4    1.3    0.9
N    -0.3    0.3    2.1
C    -1.2   -0.1    3.3
C    -1.0    0.7    4.6
O    -1.9    1.3    5.1
H    -0.8    0.8    1.4
H    -2.2    0.2    3.0
C    -1.2   -1.6    3.5
C    -2.1   -2.1    4.6
C    -2.1   -3.6    4.8
N    -3.1   -4.0    5.8
C    -3.3   -5.3    6.2
N    -2.2   -6.1    6.1
N    -4.5   -5.7    6.5
H    -0.1   -1.9    3.8
H    -1.4   -2.1    2.5
H    -3.2   -1.7    4.3
H    -1.9   -1.6    5.5
H    -1.1   -3.9    5.0
H    -2.4   -4.1    3.8
H    -4.0   -3.5    5.8
H    -2.3   -7.0    6.5
H    -1.3   -5.7    6.3
H    -4.5   -6.6    6.8
N     0.3    0.7    5.1
C     0.6    1.4    6.3
H     1.0    0.2    4.5
H     1.1    0.7    7.0
H    -0.3    1.8    6.8
H     1.3    2.2    6.1
