          35
 sphere cut out from bulk 
C    -1.1    1.8    2.2
C    -1.0    0.7    3.3
O    -0.7    0.9    4.5
H    -1.2    1.4    1.2
H    -0.2    2.4    2.3
H    -2.0    2.4    2.5
N    -1.1   -0.6    2.9
C    -1.2   -1.7    3.8
C    -0.1   -2.8    3.6
O    -0.2   -3.9    4.2
H    -1.4   -0.7    1.9
H    -1.1   -1.3    4.8
C    -2.6   -2.4    3.6
C    -2.9   -3.0    2.3
C    -4.3   -3.7    2.2
N    -4.6   -4.2    0.9
C    -5.2   -3.4   -0.1
N    -5.5   -4.1   -1.2
N    -5.4   -2.1    0.0
H    -3.4   -1.7    3.9
H    -2.6   -3.2    4.4
H    -2.1   -3.8    2.0
H    -2.9   -2.2    1.5
H    -5.1   -3.0    2.6
H    -4.3   -4.6    2.9
H    -4.9   -5.2    0.8
H    -4.8   -4.7   -1.6
H    -5.8   -3.4   -2.0
H    -5.3   -1.8    1.0
N     1.0   -2.3    3.0
C     2.2   -3.1    2.8
H     1.0   -1.4    2.6
H     3.0   -2.7    3.4
H     2.5   -3.2    1.8
H     2.0   -4.1    3.2
