          35
 sphere cut out from bulk 
C     1.4    0.3    1.1
C     0.7    0.3    2.4
O     1.3    0.4    3.5
H     0.8    0.4    0.2
H     2.1   -0.5    1.0
H     2.1    1.2    1.1
N    -0.6    0.0    2.3
C    -1.5   -0.3    3.5
C    -0.8   -0.1    4.8
O    -0.5   -1.1    5.5
H    -1.0   -0.1    1.4
H    -2.3    0.5    3.5
C    -2.2   -1.6    3.3
C    -1.5   -2.9    2.7
C    -0.5   -3.6    3.7
N     0.8   -3.0    3.7
C     1.8   -3.1    2.7
N     1.5   -4.1    1.7
N     2.8   -2.4    2.5
H    -3.1   -1.4    2.6
H    -2.7   -1.9    4.2
H    -1.0   -2.6    1.8
H    -2.3   -3.6    2.5
H    -0.4   -4.6    3.4
H    -0.9   -3.6    4.7
H     0.9   -2.2    4.3
H     2.3   -4.2    1.1
H     1.1   -5.0    2.1
H     2.9   -1.6    3.2
N    -0.8    1.1    5.4
C    -0.9    2.4    4.7
H    -0.3    1.1    6.3
H    -1.1    3.2    5.4
H    -1.7    2.4    3.9
H     0.1    2.6    4.2
