          35
 sphere cut out from bulk 
C     0.9    0.9    0.4
C     0.5    0.1    1.6
O     1.0    0.3    2.7
H     2.0    0.7    0.2
H     0.8    2.0    0.6
H     0.3    0.6   -0.5
N    -0.5   -0.8    1.4
C    -1.1   -1.5    2.5
C    -0.2   -2.8    2.8
O    -0.6   -3.9    2.4
H    -0.9   -0.9    0.5
H    -1.0   -0.9    3.4
C    -2.6   -1.9    2.2
C    -3.3   -2.5    3.4
C    -3.4   -1.5    4.7
N    -3.9   -0.2    4.4
C    -5.2    0.0    3.9
N    -6.2   -0.8    4.4
N    -5.3    0.9    3.0
H    -2.6   -2.6    1.4
H    -3.1   -0.9    1.9
H    -2.9   -3.4    3.7
H    -4.3   -2.7    3.1
H    -2.4   -1.4    5.1
H    -4.0   -2.0    5.5
H    -3.3    0.5    4.0
H    -7.1   -0.5    4.1
H    -6.1   -1.1    5.4
H    -6.3    1.1    2.8
N     0.9   -2.5    3.5
C     1.9   -3.6    3.7
H     1.1   -1.6    3.6
H     2.3   -3.5    4.7
H     2.8   -3.5    3.0
H     1.5   -4.5    3.5
