          35
 sphere cut out from bulk 
C     0.6   -0.4    0.6
C    -0.2   -0.1    1.8
O    -0.3   -1.0    2.7
H     1.7   -0.3    0.9
H     0.5    0.4   -0.2
H     0.4   -1.4    0.1
N    -1.1    0.9    1.8
C    -1.8    1.4    2.9
C    -0.9    1.4    4.2
O     0.2    1.9    4.1
H    -0.9    1.6    1.0
H    -2.0    2.5    2.8
C    -3.2    0.8    3.0
C    -3.4   -0.8    3.2
C    -3.5   -1.5    1.8
N    -3.7   -2.9    1.9
C    -2.8   -3.9    2.2
N    -1.5   -3.6    2.0
N    -3.3   -5.1    2.5
H    -3.8    1.1    2.1
H    -3.7    1.2    3.9
H    -4.3   -1.0    3.7
H    -2.6   -1.2    3.8
H    -2.5   -1.4    1.2
H    -4.2   -1.1    1.2
H    -4.7   -3.2    2.1
H    -0.8   -4.3    2.4
H    -1.1   -2.7    2.3
H    -2.5   -5.8    2.7
N    -1.4    0.8    5.3
C    -0.6    0.8    6.5
H    -2.2    0.2    5.2
H    -1.3    0.7    7.4
H    -0.0    1.7    6.6
H     0.0   -0.1    6.5
