          35
 sphere cut out from bulk 
C    -0.4    0.5    0.9
C    -0.7   -0.4    2.1
O     0.3   -0.7    2.9
H     0.5    0.1    0.4
H    -0.2    1.5    1.3
H    -1.2    0.5    0.2
N    -1.9   -0.9    2.4
C    -3.2   -0.7    1.8
C    -3.3   -0.9    0.3
O    -4.0   -0.2   -0.5
H    -1.9   -1.4    3.3
H    -3.9   -1.5    2.2
C    -4.0    0.6    2.2
C    -3.3    2.0    1.9
C    -2.4    2.5    3.0
N    -1.7    3.7    2.5
C    -0.8    4.3    3.4
N    -0.3    5.5    2.9
N    -0.5    3.8    4.5
H    -4.2    0.6    3.3
H    -5.0    0.6    1.7
H    -4.1    2.7    1.7
H    -2.8    1.9    0.9
H    -1.7    1.8    3.3
H    -3.0    2.7    3.9
H    -2.3    4.4    2.0
H     0.5    5.9    3.4
H    -0.1    5.5    1.9
H     0.3    4.3    5.0
N    -2.5   -1.9   -0.1
C    -2.4   -2.3   -1.5
H    -1.9   -2.4    0.5
H    -2.5   -3.4   -1.6
H    -1.4   -2.0   -2.0
H    -3.2   -1.8   -2.1
