          35
 sphere cut out from bulk 
C    -1.4    2.7    1.0
C    -0.5    1.5    1.2
O     0.7    1.7    1.6
H    -0.9    3.6    1.3
H    -2.4    2.6    1.5
H    -1.6    2.8   -0.1
N    -0.9    0.3    1.0
C    -2.2   -0.1    0.4
C    -3.4   -0.2    1.5
O    -4.5   -0.3    1.1
H    -0.2   -0.5    1.1
H    -2.5    0.7   -0.3
C    -2.1   -1.4   -0.4
C    -1.7   -2.7    0.4
C    -2.9   -3.5    1.0
N    -2.5   -4.6    1.8
C    -2.1   -4.4    3.1
N    -1.6   -5.6    3.7
N    -2.1   -3.3    3.8
H    -1.4   -1.2   -1.2
H    -3.1   -1.6   -0.9
H    -1.0   -2.4    1.2
H    -1.2   -3.4   -0.2
H    -3.5   -3.8    0.2
H    -3.6   -2.8    1.6
H    -2.1   -5.4    1.4
H    -1.5   -5.5    4.7
H    -2.2   -6.4    3.5
H    -2.3   -2.5    3.2
N    -3.0   -0.1    2.8
C    -4.0   -0.2    3.9
H    -2.0    0.0    3.0
H    -4.0    0.8    4.4
H    -3.7   -1.0    4.6
H    -5.0   -0.4    3.4
