          35
 sphere cut out from bulk 
C     0.9    0.3    0.2
C     0.5    0.4    1.7
O     1.3    0.9    2.5
H     0.1   -0.3   -0.4
H     1.9   -0.1    0.1
H     0.9    1.3   -0.2
N    -0.7    0.0    2.0
C    -1.3    0.2    3.4
C    -1.0    1.7    3.8
O    -1.5    2.6    3.1
H    -1.4   -0.2    1.3
H    -2.4    0.3    3.2
C    -1.1   -0.9    4.3
C     0.3   -1.7    4.2
C     0.4   -2.8    5.3
N    -0.6   -3.9    5.1
C    -0.5   -4.8    4.1
N    -1.7   -5.7    4.1
N     0.4   -5.0    3.2
H    -1.9   -1.7    4.1
H    -1.2   -0.6    5.3
H     1.1   -1.0    4.4
H     0.4   -2.1    3.2
H     0.3   -2.4    6.3
H     1.4   -3.3    5.2
H    -1.5   -3.7    5.5
H    -1.6   -6.4    3.5
H    -2.0   -6.0    5.0
H     1.1   -4.3    3.3
N    -0.4    2.0    5.0
C     0.7    1.4    5.7
H    -0.4    3.0    5.1
H     1.2    2.0    6.4
H     1.5    1.0    4.9
H     0.4    0.5    6.2
