          35
 sphere cut out from bulk 
C     0.9   -1.0    6.2
C    -0.5   -1.4    5.9
O    -1.4   -1.8    6.7
H     0.9   -0.3    7.1
H     1.5   -0.6    5.4
H     1.4   -1.9    6.6
N    -0.9   -1.1    4.6
C    -2.1   -1.6    4.0
C    -1.8   -2.3    2.6
O    -0.8   -1.9    2.0
H    -0.1   -1.0    3.9
H    -2.6   -2.3    4.7
C    -3.1   -0.4    3.8
C    -3.5    0.3    5.1
C    -4.5    1.4    4.8
N    -4.9    2.0    6.1
C    -5.9    3.0    6.3
N    -6.6    3.3    5.1
N    -6.2    3.5    7.4
H    -4.0   -0.8    3.2
H    -2.6    0.3    3.1
H    -2.6    0.6    5.6
H    -4.0   -0.5    5.7
H    -5.4    1.1    4.3
H    -4.0    2.2    4.2
H    -4.2    2.0    6.9
H    -6.0    3.4    4.3
H    -7.2    4.1    5.3
H    -5.7    3.1    8.2
N    -2.7   -3.2    2.2
C    -2.6   -3.9    1.0
H    -3.5   -3.5    2.9
H    -3.5   -3.7    0.4
H    -2.5   -5.0    1.1
H    -1.8   -3.5    0.5
