          35
 sphere cut out from bulk 
C     1.3   -0.0    0.5
C     0.3   -0.9    1.2
O     0.3   -2.1    1.1
H     2.3   -0.3    0.8
H     1.2    1.1    0.7
H     1.3   -0.2   -0.6
N    -0.6   -0.2    1.9
C    -1.8   -0.9    2.5
C    -3.0    0.0    2.2
O    -2.9    1.2    2.0
H    -0.7    0.8    1.8
H    -1.9   -1.9    2.0
C    -1.7   -1.2    4.0
C    -0.5   -2.1    4.4
C    -0.4   -2.4    5.9
N    -0.2   -1.3    6.8
C    -1.3   -0.7    7.4
N    -0.9    0.5    8.1
N    -2.5   -1.1    7.3
H    -2.6   -1.6    4.4
H    -1.6   -0.2    4.5
H     0.4   -1.6    4.1
H    -0.6   -3.0    3.8
H     0.4   -3.1    6.0
H    -1.4   -2.9    6.2
H     0.6   -0.7    6.5
H    -1.6    0.8    8.7
H     0.0    0.4    8.6
H    -3.1   -0.7    8.0
N    -4.2   -0.6    2.2
C    -5.5    0.1    2.1
H    -4.2   -1.6    2.4
H    -6.1    0.1    3.0
H    -6.1   -0.3    1.3
H    -5.2    1.1    1.9
