          35
 sphere cut out from bulk 
C    -0.4   -0.1   -0.1
C    -0.1    0.1    1.3
O     1.0    0.3    1.8
H     0.1   -1.0   -0.5
H    -0.0    0.7   -0.7
H    -1.5   -0.2   -0.4
N    -1.2   -0.0    2.2
C    -1.1    0.1    3.6
C    -0.2    1.2    4.1
O     0.7    1.0    4.9
H    -2.1   -0.2    1.8
H    -2.1    0.3    4.0
C    -0.7   -1.3    4.3
C    -1.4   -1.6    5.6
C    -1.2   -0.7    6.8
N    -2.0    0.6    6.6
C    -1.7    1.8    7.3
N    -0.3    2.0    7.5
N    -2.6    2.5    7.8
H     0.3   -1.3    4.4
H    -1.0   -2.1    3.6
H    -1.1   -2.6    5.9
H    -2.5   -1.7    5.4
H    -0.2   -0.4    6.9
H    -1.5   -1.2    7.7
H    -3.0    0.5    6.7
H    -0.1    2.9    7.8
H     0.3    1.7    6.7
H    -2.3    3.4    8.1
N    -0.6    2.5    3.7
C    -1.7    2.9    2.9
H     0.1    3.2    4.0
H    -1.9    4.0    3.1
H    -2.6    2.4    3.2
H    -1.5    2.8    1.8
