          35
 sphere cut out from bulk 
C    -0.8   -0.4    0.0
C    -0.8   -0.7    1.5
O    -0.7   -1.8    2.0
H    -0.2    0.5   -0.3
H    -1.8   -0.1   -0.3
H    -0.5   -1.3   -0.5
N    -0.8    0.4    2.4
C    -0.9    1.8    2.1
C    -0.4    2.6    3.3
O    -0.5    2.1    4.4
H    -0.8    0.2    3.4
H    -0.2    2.1    1.2
C    -2.3    2.3    1.6
C    -3.5    1.7    2.4
C    -3.9    2.3    3.8
N    -4.3    3.7    3.6
C    -3.6    4.8    4.1
N    -4.2    6.0    3.6
N    -2.6    4.8    4.8
H    -2.4    2.0    0.6
H    -2.4    3.4    1.7
H    -3.3    0.6    2.5
H    -4.4    1.7    1.8
H    -3.0    2.3    4.4
H    -4.7    1.7    4.2
H    -5.0    3.9    2.9
H    -3.8    6.8    4.1
H    -5.2    6.0    3.7
H    -2.2    3.9    5.0
N     0.2    3.8    3.0
C     0.6    4.7    4.1
H     0.2    4.1    2.1
H     1.5    5.3    3.7
H     0.9    4.1    5.0
H    -0.2    5.4    4.4
