          35
 sphere cut out from bulk 
C     0.1   -0.0    0.2
C    -0.0   -0.1    1.7
O     0.9   -0.1    2.5
H     1.1    0.3    0.0
H    -0.6    0.6   -0.2
H    -0.1   -1.0   -0.2
N    -1.3   -0.1    2.3
C    -2.6   -0.1    1.7
C    -2.8   -1.1    0.5
O    -3.0   -0.8   -0.6
H    -1.3   -0.1    3.3
H    -3.3   -0.4    2.5
C    -3.1    1.3    1.2
C    -4.6    1.4    1.1
C    -5.0    2.9    0.8
N    -6.4    3.1    0.8
C    -7.1    2.9   -0.4
N    -8.5    3.0   -0.2
N    -6.5    2.6   -1.5
H    -2.6    1.6    0.3
H    -2.7    2.0    2.0
H    -5.1    1.1    2.0
H    -5.0    0.8    0.3
H    -4.6    3.2   -0.1
H    -4.6    3.6    1.6
H    -7.0    2.9    1.6
H    -9.0    3.0   -1.1
H    -8.8    3.8    0.4
H    -7.1    2.5   -2.3
N    -2.6   -2.5    0.9
C    -2.3   -3.0    2.2
H    -2.7   -3.1    0.1
H    -2.5   -4.1    2.1
H    -2.9   -2.6    3.0
H    -1.2   -2.9    2.5
