          35
 sphere cut out from bulk 
C    -1.4   -1.3   -0.2
C    -1.0   -0.5    1.0
O     0.0    0.2    1.1
H    -2.4   -1.8   -0.1
H    -0.7   -2.0   -0.4
H    -1.5   -0.6   -1.1
N    -1.9   -0.5    2.0
C    -1.7    0.2    3.3
C    -2.1   -0.5    4.5
O    -2.6    0.0    5.5
H    -2.8   -1.1    2.0
H    -0.6    0.3    3.4
C    -2.2    1.7    3.3
C    -3.6    2.0    2.7
C    -4.8    1.3    3.3
N    -5.1    0.1    2.5
C    -5.0   -1.2    3.0
N    -5.5   -1.4    4.2
N    -4.5   -2.1    2.2
H    -1.4    2.3    2.7
H    -2.1    2.0    4.3
H    -3.6    1.9    1.6
H    -3.7    3.1    2.9
H    -5.7    2.0    3.3
H    -4.6    1.0    4.3
H    -4.8    0.1    1.6
H    -5.5   -2.4    4.6
H    -6.2   -0.8    4.6
H    -4.6   -3.0    2.5
N    -2.0   -1.9    4.4
C    -2.4   -2.8    5.5
H    -1.7   -2.3    3.5
H    -3.1   -3.5    5.1
H    -2.8   -2.2    6.3
H    -1.5   -3.3    5.9
