          35
 sphere cut out from bulk 
C    -0.2   -0.5    0.8
C    -0.2    0.1    2.1
O     0.8    0.0    2.9
H    -0.9   -1.4    0.8
H     0.8   -0.8    0.5
H    -0.7    0.1    0.0
N    -1.3    0.7    2.7
C    -2.5    1.3    2.0
C    -3.1    0.4    0.9
O    -3.3   -0.8    1.2
H    -1.1    1.0    3.6
H    -3.2    1.3    2.8
C    -2.2    2.8    1.7
C    -1.1    3.2    0.6
C     0.4    3.0    1.0
N     0.7    3.1    2.4
C     0.6    4.3    3.1
N     1.0    4.1    4.5
N     0.2    5.4    2.5
H    -1.9    3.3    2.6
H    -3.1    3.2    1.4
H    -1.3    4.3    0.5
H    -1.3    2.7   -0.3
H     0.9    3.8    0.4
H     0.7    2.0    0.7
H     0.9    2.2    2.9
H     1.2    5.0    4.9
H     1.7    3.5    4.6
H     0.2    6.2    3.2
N    -3.5    1.0   -0.2
C    -4.2    0.3   -1.3
H    -3.3    2.0   -0.3
H    -3.6    0.3   -2.2
H    -5.2    0.8   -1.5
H    -4.4   -0.7   -0.9
