          35
 sphere cut out from bulk 
C    -0.0   -0.3   -0.3
C    -0.1    0.3    1.1
O     0.7    1.0    1.6
H     0.1    0.5   -1.0
H    -0.9   -1.0   -0.6
H     0.9   -0.9   -0.3
N    -1.3   -0.0    1.8
C    -1.6    0.5    3.1
C    -0.9   -0.3    4.2
O    -1.5   -1.2    4.8
H    -1.9   -0.7    1.4
H    -1.1    1.5    3.1
C    -3.1    0.6    3.3
C    -3.5    1.2    4.7
C    -2.8    2.6    5.0
N    -3.0    3.6    4.0
C    -2.3    4.8    4.0
N    -2.8    5.7    3.0
N    -1.4    5.2    4.9
H    -3.5   -0.4    3.3
H    -3.5    1.2    2.5
H    -3.3    0.5    5.5
H    -4.6    1.4    4.7
H    -1.7    2.4    5.2
H    -3.2    2.9    6.0
H    -4.0    3.7    3.7
H    -2.2    6.5    3.0
H    -2.9    5.2    2.1
H    -1.3    4.5    5.6
N     0.4   -0.1    4.3
C     1.3   -0.8    5.2
H     0.8    0.6    3.6
H     2.0   -0.2    5.8
H     1.9   -1.5    4.6
H     0.7   -1.4    5.9
