          35
 sphere cut out from bulk 
C    -1.0    1.0    3.3
C    -2.4    1.1    3.7
O    -2.8    1.6    4.7
H    -0.4    1.0    4.2
H    -0.7    1.9    2.7
H    -0.7    0.1    2.7
N    -3.4    0.5    2.9
C    -3.4    0.2    1.4
C    -2.9   -1.2    1.1
O    -1.9   -1.7    1.6
H    -4.3    0.5    3.3
H    -4.5    0.2    1.2
C    -2.7    1.2    0.5
C    -3.0    2.7    0.7
C    -4.5    3.1    0.9
N    -4.9    3.1    2.2
C    -5.8    2.2    2.8
N    -5.9    2.4    4.2
N    -6.5    1.4    2.0
H    -3.0    0.9   -0.5
H    -1.6    1.0    0.5
H    -2.6    3.2   -0.2
H    -2.4    3.0    1.6
H    -5.2    2.4    0.3
H    -4.6    4.1    0.4
H    -4.4    3.7    2.9
H    -6.5    1.7    4.6
H    -4.9    2.4    4.7
H    -7.1    0.8    2.6
N    -3.7   -2.0    0.2
C    -4.9   -1.6   -0.5
H    -3.2   -2.9    0.0
H    -4.7   -0.9   -1.3
H    -5.6   -1.1    0.2
H    -5.3   -2.5   -0.8
