          35
 sphere cut out from bulk 
C    -0.4   -0.2   -0.8
C    -0.1    0.1    0.7
O     1.0    0.2    1.1
H    -0.8    0.6   -1.3
H    -1.1   -1.1   -0.9
H     0.5   -0.5   -1.2
N    -1.2    0.3    1.5
C    -2.6    0.4    1.1
C    -3.0    1.6    0.2
O    -3.6    1.4   -0.8
H    -1.0    0.6    2.4
H    -2.9   -0.5    0.5
C    -3.5    0.3    2.4
C    -5.0    0.2    2.2
C    -5.8    1.4    1.7
N    -5.4    2.7    2.2
C    -5.3    2.9    3.6
N    -6.4    2.4    4.3
N    -4.4    3.6    4.1
H    -3.3    1.2    3.0
H    -3.1   -0.5    2.9
H    -5.4   -0.1    3.2
H    -5.2   -0.7    1.5
H    -6.9    1.2    1.8
H    -5.7    1.5    0.6
H    -4.6    3.1    1.8
H    -7.3    2.3    3.9
H    -6.5    2.7    5.3
H    -4.5    3.9    5.0
N    -2.5    2.9    0.5
C    -1.7    3.3    1.6
H    -2.7    3.5   -0.2
H    -1.6    4.4    1.6
H    -0.7    2.9    1.6
H    -2.1    3.1    2.6
