          35
 sphere cut out from bulk 
C     0.5   -0.7    0.7
C     0.3    0.0    2.0
O     1.2    0.7    2.5
H     1.5   -0.6    0.4
H    -0.2   -0.4   -0.1
H     0.3   -1.8    0.8
N    -1.0   -0.0    2.6
C    -2.1   -0.7    2.1
C    -3.0   -0.0    1.0
O    -3.9   -0.7    0.5
H    -1.0    0.5    3.5
H    -1.8   -1.7    1.6
C    -3.1   -1.1    3.3
C    -4.0    0.1    3.8
C    -5.5   -0.2    3.7
N    -6.3    0.9    3.7
C    -6.5    1.8    2.6
N    -6.4    1.2    1.4
N    -7.0    3.0    2.7
H    -2.5   -1.5    4.1
H    -3.7   -1.9    3.0
H    -3.8    1.0    3.2
H    -3.7    0.3    4.8
H    -5.8   -0.9    4.5
H    -5.7   -0.8    2.8
H    -6.3    1.4    4.6
H    -5.7    0.5    1.2
H    -6.5    1.9    0.7
H    -7.1    3.3    3.7
N    -2.8    1.3    0.6
C    -1.9    2.3    1.1
H    -3.5    1.5   -0.1
H    -0.9    2.2    0.9
H    -2.1    2.5    2.2
H    -2.2    3.3    0.7
