          35
 sphere cut out from bulk 
C     1.0   -0.4   -0.0
C     0.5    0.0    1.4
O     1.3    0.6    2.2
H     0.2   -0.8   -0.6
H     1.8   -1.1    0.1
H     1.4    0.6   -0.5
N    -0.8   -0.3    1.7
C    -1.5   -0.1    2.9
C    -2.5    1.0    3.0
O    -3.6    0.8    3.6
H    -1.3   -0.7    0.9
H    -2.2   -1.0    2.9
C    -0.7   -0.2    4.2
C    -0.2    1.1    4.9
C     0.5    0.8    6.2
N     0.9    2.0    6.9
C     0.2    2.6    8.0
N    -1.2    2.2    8.0
N     0.8    3.3    8.8
H     0.1   -0.9    4.1
H    -1.4   -0.7    5.0
H    -1.1    1.7    5.0
H     0.5    1.6    4.2
H     1.4    0.2    6.0
H    -0.1    0.2    6.8
H     1.9    2.3    6.9
H    -1.7    2.1    7.2
H    -1.7    2.7    8.7
H     0.2    3.8    9.5
N    -2.3    2.2    2.4
C    -1.1    2.8    1.7
H    -3.1    2.9    2.5
H    -1.1    3.8    1.9
H    -1.1    2.5    0.7
H    -0.2    2.4    2.2
