          35
 sphere cut out from bulk 
C     0.1    0.9    0.3
C    -0.5   -0.2    1.0
O    -0.2   -1.4    0.8
H    -0.2    1.9    0.6
H     0.0    0.8   -0.8
H     1.2    0.9    0.5
N    -1.6    0.1    1.9
C    -2.4   -0.9    2.4
C    -3.7   -0.3    3.0
O    -4.8   -0.7    2.7
H    -1.9    1.0    1.8
H    -2.8   -1.6    1.6
C    -1.7   -1.8    3.5
C    -1.9   -3.4    3.2
C    -3.3   -4.0    3.5
N    -4.3   -3.6    2.5
C    -4.3   -4.3    1.3
N    -5.1   -3.6    0.3
N    -3.6   -5.4    1.1
H    -2.1   -1.6    4.5
H    -0.7   -1.6    3.5
H    -1.2   -3.9    3.9
H    -1.5   -3.6    2.2
H    -3.6   -3.6    4.5
H    -3.2   -5.0    3.5
H    -4.6   -2.7    2.5
H    -5.4   -4.2   -0.4
H    -5.8   -3.0    0.7
H    -3.8   -5.7    0.2
N    -3.6    0.8    3.8
C    -2.5    1.2    4.6
H    -4.5    1.1    4.1
H    -2.5    0.8    5.6
H    -2.5    2.3    4.7
H    -1.5    0.9    4.1
