          35
 sphere cut out from bulk 
C    -0.6    1.1    0.3
C    -0.2    0.4    1.5
O     1.0    0.3    1.9
H    -1.3    2.0    0.5
H    -1.1    0.5   -0.4
H     0.3    1.5   -0.2
N    -1.2    0.0    2.4
C    -2.6   -0.0    2.1
C    -3.5    0.7    3.2
O    -4.7    0.4    3.4
H    -0.8   -0.5    3.2
H    -2.8    0.5    1.2
C    -3.1   -1.5    1.9
C    -3.0   -2.4    3.1
C    -4.1   -3.4    3.2
N    -5.4   -2.8    3.4
C    -6.6   -3.4    3.0
N    -6.6   -4.8    3.0
N    -7.6   -2.6    2.7
H    -2.6   -1.9    1.1
H    -4.2   -1.4    1.6
H    -3.1   -1.8    4.1
H    -2.0   -2.9    3.1
H    -3.9   -4.2    4.0
H    -4.1   -4.0    2.3
H    -5.5   -1.8    3.4
H    -7.5   -5.2    2.9
H    -6.0   -5.2    3.7
H    -8.5   -3.2    2.6
N    -2.8    1.6    3.9
C    -3.5    2.4    5.0
H    -1.8    1.7    3.8
H    -3.0    2.3    5.9
H    -4.5    2.1    5.0
H    -3.5    3.5    4.7
