          35
 sphere cut out from bulk 
C    -0.8    2.0    0.4
C    -0.0    1.3    1.4
O     1.2    1.5    1.6
H    -1.8    2.2    0.7
H    -0.8    1.4   -0.6
H    -0.3    2.9    0.1
N    -0.7    0.3    2.1
C    -1.8   -0.5    1.7
C    -3.1   -0.1    2.4
O    -4.2   -0.7    2.0
H    -0.0   -0.2    2.7
H    -2.0   -0.3    0.6
C    -1.5   -2.0    1.9
C    -0.6   -2.6    0.8
C     0.8   -2.0    0.5
N     1.6   -1.7    1.7
C     2.3   -2.6    2.4
N     3.1   -2.0    3.4
N     2.3   -3.9    2.3
H    -2.5   -2.5    1.9
H    -1.1   -2.1    2.9
H    -1.2   -2.7   -0.2
H    -0.5   -3.7    1.1
H     0.6   -1.1   -0.1
H     1.3   -2.7   -0.1
H     1.8   -0.7    1.8
H     3.8   -2.7    3.7
H     3.5   -1.1    3.1
H     1.6   -4.2    1.6
N    -3.1    0.8    3.3
C    -4.2    1.3    4.1
H    -2.1    1.2    3.5
H    -5.1    0.8    3.7
H    -4.4    2.4    4.0
H    -4.1    1.1    5.2
