          35
 sphere cut out from bulk 
C    -1.7    1.2   -0.6
C    -0.6    0.5    0.1
O     0.6    0.8   -0.2
H    -2.2    0.5   -1.3
H    -1.3    2.0   -1.2
H    -2.5    1.5    0.1
N    -0.8   -0.4    1.1
C    -2.1   -1.1    1.3
C    -2.0   -1.6    2.7
O    -1.0   -1.9    3.3
H    -0.0   -0.8    1.5
H    -2.9   -0.4    1.2
C    -2.3   -2.3    0.3
C    -1.1   -3.2    0.1
C    -0.1   -2.8   -1.0
N     1.2   -3.4   -1.0
C     2.1   -3.1    0.0
N     2.1   -1.8    0.5
N     2.9   -4.1    0.4
H    -2.6   -1.9   -0.7
H    -3.1   -2.9    0.7
H    -1.4   -4.2   -0.0
H    -0.5   -3.2    1.1
H    -0.0   -1.7   -1.1
H    -0.6   -3.1   -2.0
H     1.2   -4.4   -1.2
H     2.8   -1.6    1.1
H     1.8   -1.1   -0.1
H     3.6   -3.7    1.0
N    -3.2   -1.8    3.4
C    -4.6   -1.5    2.9
H    -3.1   -2.2    4.3
H    -4.8   -2.0    2.0
H    -4.7   -0.4    2.7
H    -5.3   -1.8    3.7
