          35
 sphere cut out from bulk 
C     0.3    0.6    0.5
C    -0.1   -0.8    0.9
O     0.5   -1.8    0.5
H    -0.5    1.2    0.1
H     1.1    0.5   -0.2
H     0.7    1.2    1.4
N    -1.2   -1.0    1.8
C    -2.3   -0.2    2.4
C    -3.7   -0.6    1.9
O    -4.6   -0.8    2.7
H    -1.3   -2.0    1.9
H    -2.3   -0.5    3.4
C    -2.1    1.3    2.4
C    -3.1    2.0    3.3
C    -2.7    2.1    4.8
N    -2.4    0.8    5.5
C    -3.4    0.1    6.2
N    -4.7    0.0    5.6
N    -3.1   -0.3    7.4
H    -2.2    1.7    1.4
H    -1.1    1.5    2.8
H    -4.1    1.6    3.2
H    -3.2    3.1    3.0
H    -3.5    2.6    5.4
H    -1.8    2.7    4.9
H    -1.6    0.8    6.0
H    -5.3   -0.5    6.1
H    -4.6   -0.2    4.6
H    -3.8   -0.9    7.7
N    -3.9   -0.7    0.6
C    -3.1   -0.5   -0.6
H    -4.9   -1.0    0.4
H    -3.7   -0.5   -1.5
H    -2.3   -1.3   -0.7
H    -2.6    0.5   -0.5
