          35
 sphere cut out from bulk 
C     0.1   -0.2    1.4
C    -0.8   -0.8    2.4
O    -0.4   -1.3    3.4
H     0.1   -0.7    0.4
H     1.1   -0.2    1.8
H    -0.2    0.9    1.1
N    -2.2   -0.8    2.1
C    -2.8   -0.1    1.0
C    -4.3    0.2    1.3
O    -4.8    1.3    1.0
H    -2.7   -1.0    2.9
H    -2.3    0.9    0.9
C    -2.8   -0.8   -0.4
C    -2.2   -0.1   -1.6
C    -3.1    1.1   -2.1
N    -3.1    2.3   -1.2
C    -2.0    2.9   -0.7
N    -0.9    3.0   -1.7
N    -1.8    3.5    0.4
H    -3.8   -1.2   -0.6
H    -2.1   -1.7   -0.2
H    -1.2    0.3   -1.4
H    -2.1   -0.8   -2.5
H    -2.7    1.4   -3.1
H    -4.1    0.8   -2.2
H    -3.8    2.2   -0.4
H    -1.2    3.1   -2.6
H    -0.2    3.6   -1.4
H    -2.6    3.3    1.0
N    -5.0   -0.8    1.9
C    -6.4   -0.7    2.2
H    -4.5   -1.7    2.0
H    -6.6   -1.1    3.2
H    -7.0   -1.2    1.5
H    -6.7    0.4    2.3
