          35
 sphere cut out from bulk 
C    -0.3   -0.4   -0.5
C    -0.1    0.3    0.8
O     1.0    0.8    1.1
H     0.6   -0.4   -1.1
H    -1.1    0.1   -1.1
H    -0.6   -1.5   -0.3
N    -1.2    0.4    1.7
C    -2.5   -0.2    1.7
C    -2.4   -1.7    2.1
O    -2.1   -2.0    3.2
H    -0.9    0.8    2.6
H    -3.0    0.2    2.6
C    -3.4    0.3    0.6
C    -4.9    0.1    0.8
C    -5.7    0.1   -0.5
N    -5.5    1.4   -1.2
C    -4.8    1.4   -2.4
N    -4.9    2.6   -3.1
N    -4.1    0.4   -2.7
H    -3.1   -0.1   -0.4
H    -3.2    1.4    0.4
H    -5.3    0.8    1.5
H    -5.1   -0.9    1.2
H    -6.8    0.1   -0.2
H    -5.5   -0.7   -1.1
H    -6.3    2.0   -1.2
H    -4.2    2.8   -3.8
H    -5.0    3.5   -2.5
H    -3.5    0.6   -3.6
N    -2.6   -2.7    1.2
C    -3.2   -2.8   -0.2
H    -2.5   -3.6    1.6
H    -4.3   -2.6   -0.2
H    -3.0   -3.8   -0.6
H    -2.8   -2.0   -0.8
