          35
 sphere cut out from bulk 
C     0.6    0.4    1.6
C    -0.3   -0.7    2.1
O     0.1   -1.6    2.8
H     1.3    0.6    2.4
H     0.1    1.3    1.3
H     1.1   -0.0    0.8
N    -1.7   -0.7    1.8
C    -2.6    0.3    1.4
C    -2.5    0.6   -0.1
O    -1.4    0.7   -0.7
H    -2.1   -1.5    2.2
H    -3.6   -0.1    1.5
C    -2.6    1.6    2.2
C    -2.8    1.4    3.7
C    -1.4    1.5    4.5
N    -1.5    0.9    5.8
C    -0.4    0.3    6.5
N     0.5   -0.3    5.6
N    -0.3    0.3    7.7
H    -3.5    2.2    1.8
H    -1.7    2.2    2.0
H    -3.2    0.4    3.9
H    -3.5    2.1    4.1
H    -1.1    2.5    4.5
H    -0.7    1.0    3.9
H    -2.1    1.4    6.5
H     0.2   -0.8    4.8
H     1.2   -0.8    6.2
H    -1.0    0.8    8.2
N    -3.6    0.9   -0.8
C    -5.0    0.9   -0.3
H    -3.5    1.2   -1.8
H    -5.6    1.2   -1.1
H    -5.2    1.5    0.5
H    -5.3   -0.2   -0.1
