          35
 sphere cut out from bulk 
C     0.7    3.2    1.0
C    -0.5    2.7    1.7
O    -1.4    3.5    2.0
H     1.5    2.4    0.8
H     1.2    4.0    1.6
H     0.4    3.7    0.0
N    -0.5    1.4    2.0
C    -1.5    0.8    2.9
C    -0.9   -0.1    3.9
O     0.1   -0.8    3.6
H     0.3    0.8    1.9
H    -2.0    1.6    3.4
C    -2.6    0.0    2.0
C    -3.4    0.9    1.1
C    -4.6    1.7    1.7
N    -4.2    2.4    2.9
C    -4.6    2.0    4.2
N    -5.9    1.5    4.3
N    -3.7    2.1    5.1
H    -3.3   -0.5    2.8
H    -2.1   -0.8    1.5
H    -3.8    0.3    0.3
H    -2.7    1.6    0.6
H    -5.4    1.0    1.9
H    -5.0    2.4    0.9
H    -3.3    2.9    2.8
H    -6.2    1.3    5.2
H    -6.6    2.0    3.7
H    -4.2    1.9    6.0
N    -1.5   -0.1    5.1
C    -1.0   -0.9    6.2
H    -2.2    0.7    5.2
H    -0.7   -0.2    7.0
H    -0.2   -1.5    5.9
H    -1.9   -1.5    6.6
