          35
 sphere cut out from bulk 
C     1.4   -1.2    0.8
C     0.7    0.1    1.2
O     1.3    1.1    1.5
H     2.1   -1.5    1.6
H     2.0   -1.0   -0.1
H     0.7   -2.0    0.6
N    -0.7   -0.0    1.2
C    -1.5    1.1    1.8
C    -2.6    0.4    2.7
O    -2.9   -0.8    2.5
H    -1.1   -0.9    1.2
H    -0.9    1.7    2.4
C    -2.2    1.9    0.7
C    -1.3    2.6   -0.2
C    -1.9    3.5   -1.3
N    -2.8    2.8   -2.2
C    -4.1    2.4   -2.0
N    -4.8    3.4   -1.3
N    -4.8    1.4   -2.4
H    -2.9    2.6    1.2
H    -2.9    1.2    0.1
H    -0.6    1.9   -0.8
H    -0.6    3.2    0.3
H    -1.2    4.0   -1.9
H    -2.6    4.2   -0.8
H    -2.3    2.0   -2.8
H    -5.8    3.2   -1.3
H    -4.7    4.3   -1.6
H    -4.1    0.7   -2.8
N    -3.1    1.2    3.6
C    -4.2    0.7    4.5
H    -2.8    2.1    3.7
H    -5.1    1.3    4.3
H    -3.9    0.8    5.6
H    -4.4   -0.3    4.3
