          35
 sphere cut out from bulk 
C    -0.6    1.8   -0.5
C    -0.2    1.4    0.9
O     0.9    1.0    1.2
H     0.1    2.5   -0.8
H    -1.6    2.1   -0.7
H    -0.4    0.9   -1.2
N    -1.3    1.4    1.8
C    -1.1    1.0    3.2
C    -2.5    0.3    3.6
O    -2.6   -0.9    3.3
H    -2.2    1.7    1.4
H    -0.4    0.2    3.2
C    -0.7    2.1    4.1
C    -0.2    1.7    5.5
C     1.1    1.0    5.5
N     2.2    1.9    5.1
C     3.3    1.5    4.3
N     3.0    0.6    3.3
N     4.5    1.9    4.5
H    -1.4    3.0    4.1
H     0.2    2.6    3.6
H    -1.0    1.0    5.9
H    -0.2    2.6    6.1
H     1.1    0.1    4.8
H     1.3    0.6    6.5
H     2.5    2.5    5.8
H     3.8    0.4    2.8
H     2.2    0.8    2.8
H     4.6    2.4    5.4
N    -3.4    1.1    4.2
C    -4.7    0.6    4.6
H    -3.1    2.0    4.4
H    -5.5    1.2    4.3
H    -4.7    0.5    5.7
H    -4.8   -0.4    4.2
