          35
 sphere cut out from bulk 
C     1.3    0.7    0.5
C     0.8    0.4    1.8
O     1.5    0.1    2.8
H     1.9   -0.2    0.1
H     2.0    1.6    0.5
H     0.5    0.9   -0.3
N    -0.6    0.4    2.0
C    -1.2    0.1    3.2
C    -2.6   -0.4    2.8
O    -3.1   -0.1    1.8
H    -1.2    0.6    1.2
H    -0.7   -0.7    3.7
C    -1.2    1.2    4.2
C    -1.9    2.5    3.7
C    -3.4    2.6    3.9
N    -4.0    3.8    3.3
C    -4.2    3.9    1.9
N    -4.5    5.3    1.5
N    -4.1    3.0    1.0
H    -0.2    1.4    4.5
H    -1.7    0.9    5.2
H    -1.6    2.7    2.7
H    -1.5    3.4    4.3
H    -3.7    2.6    4.9
H    -3.9    1.8    3.4
H    -3.7    4.7    3.7
H    -4.8    5.3    0.6
H    -5.2    5.7    2.1
H    -3.8    2.1    1.3
N    -3.3   -1.2    3.7
C    -2.9   -1.7    5.0
H    -4.3   -1.4    3.4
H    -3.4   -2.6    5.2
H    -3.2   -1.0    5.8
H    -1.8   -1.8    5.1
