          35
 sphere cut out from bulk 
C     0.2   -0.4    0.5
C    -0.6   -0.9    1.7
O    -0.7   -2.1    1.9
H     1.3   -0.8    0.6
H     0.3    0.7    0.4
H    -0.2   -0.8   -0.4
N    -1.2    0.0    2.4
C    -1.9   -0.3    3.6
C    -3.4    0.2    3.6
O    -4.3   -0.6    4.0
H    -0.9    1.0    2.2
H    -2.0   -1.4    3.6
C    -1.2    0.2    4.9
C     0.1   -0.4    5.2
C     0.2   -1.9    5.3
N    -0.7   -2.4    6.3
C    -1.1   -3.8    6.5
N    -1.8   -4.0    7.6
N    -0.8   -4.7    5.6
H    -1.9   -0.1    5.8
H    -1.2    1.3    5.0
H     0.6    0.0    6.1
H     0.8   -0.1    4.4
H     1.2   -2.3    5.4
H    -0.2   -2.4    4.3
H    -0.5   -2.0    7.2
H    -2.1   -5.0    7.6
H    -2.5   -3.3    7.8
H    -0.2   -4.4    4.9
N    -3.7    1.4    3.2
C    -2.9    2.5    2.7
H    -4.7    1.6    3.2
H    -2.0    2.6    3.3
H    -3.5    3.5    2.8
H    -2.6    2.4    1.6
