          35
 sphere cut out from bulk 
C    -0.5    0.6    0.2
C    -0.5    0.1    1.6
O     0.4    0.3    2.4
H    -1.4    0.5   -0.4
H     0.4    0.2   -0.3
H    -0.3    1.7    0.2
N    -1.7   -0.6    1.9
C    -2.0   -1.3    3.1
C    -3.1   -0.7    4.0
O    -3.9   -1.4    4.6
H    -2.4   -0.7    1.2
H    -2.6   -2.2    2.7
C    -0.8   -2.0    3.9
C    -0.1   -1.2    5.0
C    -0.9   -1.3    6.4
N    -0.1   -0.7    7.5
C     0.9   -1.4    8.1
N     1.7   -0.6    9.0
N     1.3   -2.6    7.9
H    -0.1   -2.3    3.1
H    -1.2   -2.9    4.3
H     0.1   -0.2    4.7
H     0.9   -1.7    5.1
H    -1.1   -2.3    6.6
H    -1.8   -0.8    6.3
H     0.1    0.3    7.4
H     2.3   -1.2    9.5
H     1.1   -0.0    9.6
H     0.8   -3.1    7.2
N    -3.0    0.7    4.3
C    -2.1    1.7    3.9
H    -3.8    0.9    4.9
H    -2.1    2.5    4.6
H    -2.5    2.2    2.9
H    -1.1    1.4    3.8
