          35
 sphere cut out from bulk 
C     0.9    0.6    2.1
C     0.1   -0.6    2.2
O     0.5   -1.7    1.8
H     0.3    1.6    2.2
H     1.4    0.7    1.1
H     1.6    0.6    2.9
N    -1.2   -0.5    2.8
C    -2.0   -1.7    3.1
C    -3.3   -1.8    2.3
O    -4.2   -2.6    2.7
H    -1.4    0.4    3.2
H    -1.4   -2.5    2.8
C    -2.2   -1.7    4.6
C    -3.0   -0.6    5.2
C    -2.4    0.1    6.4
N    -1.0    0.5    6.2
C    -0.6    1.6    5.4
N     0.7    2.0    5.7
N    -1.4    2.0    4.5
H    -1.2   -1.8    5.1
H    -2.7   -2.7    4.8
H    -4.0   -0.9    5.5
H    -3.2    0.2    4.4
H    -2.4   -0.5    7.2
H    -3.0    1.0    6.6
H    -0.4    0.3    7.0
H     1.2    2.5    5.0
H     1.3    1.4    6.2
H    -0.9    2.8    4.0
N    -3.4   -0.9    1.3
C    -4.6   -0.9    0.4
H    -2.7   -0.3    1.1
H    -5.1    0.1    0.4
H    -5.3   -1.6    0.8
H    -4.3   -1.2   -0.6
