          35
 sphere cut out from bulk 
C     0.2   -0.4    0.4
C    -0.3    0.8    1.2
O     0.3    1.9    1.1
H    -0.6   -1.0    0.1
H     0.8   -1.1    1.1
H     0.8   -0.1   -0.4
N    -1.3    0.6    2.1
C    -2.0   -0.6    2.4
C    -3.3   -0.2    3.1
O    -3.5    0.9    3.6
H    -1.6    1.4    2.6
H    -2.3   -1.1    1.5
C    -1.2   -1.6    3.3
C    -0.3   -1.1    4.3
C    -0.8   -0.2    5.4
N    -2.1   -0.6    6.0
C    -2.5   -1.9    6.4
N    -1.4   -2.7    6.8
N    -3.7   -2.4    6.4
H    -0.7   -2.3    2.6
H    -2.0   -2.3    3.8
H     0.5   -0.5    3.8
H     0.2   -1.9    4.7
H    -1.0    0.8    5.1
H    -0.1   -0.1    6.2
H    -2.9   -0.0    5.6
H    -1.8   -3.5    7.3
H    -0.7   -2.2    7.3
H    -4.4   -1.7    6.0
N    -4.4   -1.0    3.1
C    -4.4   -2.4    2.7
H    -5.2   -0.7    3.6
H    -4.1   -3.1    3.5
H    -3.8   -2.6    1.8
H    -5.5   -2.7    2.4
