          35
 sphere cut out from bulk 
C     0.3    1.0    0.0
C    -0.1    0.5    1.4
O     0.6   -0.3    2.0
H     0.7    0.2   -0.6
H     1.2    1.7    0.2
H    -0.4    1.6   -0.5
N    -1.3    0.9    1.8
C    -1.9    0.6    3.1
C    -3.4    0.5    3.0
O    -4.1    1.5    3.3
H    -1.8    1.6    1.2
H    -1.5   -0.5    3.3
C    -1.4    1.4    4.3
C    -1.4    3.0    4.0
C     0.0    3.4    3.5
N     1.1    3.2    4.4
C     2.4    2.9    4.1
N     2.5    2.0    3.0
N     3.5    3.2    4.7
H    -0.4    1.1    4.6
H    -2.1    1.2    5.1
H    -1.6    3.5    5.0
H    -2.1    3.3    3.3
H    -0.1    4.5    3.2
H     0.3    2.9    2.5
H     1.1    3.8    5.2
H     3.4    1.7    2.8
H     1.8    1.2    3.0
H     3.3    4.0    5.3
N    -4.0   -0.6    2.4
C    -3.3   -1.8    2.0
H    -5.0   -0.6    2.3
H    -4.0   -2.5    1.4
H    -2.9   -2.4    2.8
H    -2.4   -1.6    1.3
