          35
 sphere cut out from bulk 
C     0.0   -0.2    0.3
C     0.2    0.0    1.8
O     1.3    0.1    2.3
H     0.9   -0.7   -0.1
H    -0.1    0.8   -0.2
H    -0.9   -0.8   -0.0
N    -1.0    0.0    2.5
C    -2.4    0.1    2.1
C    -2.9   -1.2    1.5
O    -4.0   -1.2    0.8
H    -0.8    0.3    3.5
H    -2.9    0.2    3.1
C    -2.8    1.3    1.3
C    -2.3    2.7    1.8
C    -2.9    3.0    3.1
N    -2.5    4.3    3.6
C    -2.8    4.8    4.8
N    -2.3    6.2    5.0
N    -3.4    4.3    5.8
H    -3.9    1.3    1.2
H    -2.4    1.2    0.2
H    -2.6    3.4    1.1
H    -1.2    2.7    1.9
H    -2.6    2.3    3.9
H    -4.0    3.0    3.1
H    -2.4    5.0    2.8
H    -2.5    6.5    6.0
H    -1.4    6.3    4.7
H    -3.8    3.4    5.5
N    -2.2   -2.3    1.9
C    -2.6   -3.7    1.5
H    -1.4   -2.2    2.4
H    -2.8   -4.3    2.3
H    -1.9   -4.1    0.8
H    -3.6   -3.6    0.9
