          35
 sphere cut out from bulk 
C     0.2    0.2    0.1
C     0.0    0.3    1.6
O     0.9    0.7    2.3
H     1.0   -0.5   -0.1
H     0.4    1.2   -0.3
H    -0.7   -0.2   -0.4
N    -1.2   -0.1    2.1
C    -1.5   -0.1    3.5
C    -2.4   -1.2    3.8
O    -3.3   -1.5    3.1
H    -1.9   -0.5    1.5
H    -0.5   -0.1    4.0
C    -2.1    1.3    3.9
C    -2.3    1.5    5.5
C    -1.0    1.7    6.2
N    -1.2    1.6    7.6
C    -0.2    1.5    8.5
N    -0.6    1.6    9.9
N     1.1    1.3    8.2
H    -3.1    1.3    3.4
H    -1.5    2.1    3.5
H    -2.9    0.6    5.9
H    -3.0    2.3    5.6
H    -0.6    2.7    5.9
H    -0.3    1.0    5.9
H    -2.0    2.2    8.0
H     0.2    1.3   10.5
H    -1.4    1.0   10.1
H     1.3    1.4    7.2
N    -2.2   -2.0    5.0
C    -1.1   -1.9    6.0
H    -2.9   -2.7    5.1
H    -0.2   -1.6    5.5
H    -1.0   -2.9    6.4
H    -1.4   -1.2    6.8
