          35
 sphere cut out from bulk 
C    -0.8   -0.1   -1.0
C    -0.4   -0.4    0.4
O     0.8   -0.6    0.7
H     0.1    0.1   -1.6
H    -1.5    0.7   -1.1
H    -1.2   -1.0   -1.5
N    -1.4   -0.5    1.4
C    -2.8   -0.2    1.3
C    -3.5   -1.0    0.1
O    -4.1   -0.5   -0.8
H    -1.0   -0.6    2.3
H    -3.2   -0.6    2.2
C    -3.2    1.3    1.2
C    -4.7    1.6    1.5
C    -5.3    2.7    0.7
N    -5.5    2.2   -0.7
C    -5.7    3.1   -1.7
N    -5.6    2.5   -3.0
N    -6.0    4.3   -1.6
H    -3.0    1.6    0.2
H    -2.6    1.8    1.9
H    -4.8    1.8    2.6
H    -5.3    0.6    1.4
H    -4.7    3.6    0.8
H    -6.3    2.9    1.1
H    -5.0    1.3   -0.9
H    -6.0    3.1   -3.7
H    -5.9    1.5   -3.0
H    -6.0    4.7   -0.7
N    -3.4   -2.4    0.2
C    -2.7   -3.2    1.2
H    -3.8   -2.9   -0.6
H    -3.1   -4.2    1.1
H    -2.9   -2.9    2.2
H    -1.6   -3.2    1.1
