          35
 sphere cut out from bulk 
C    -2.0    0.5    0.3
C    -1.5    0.4    1.7
O    -0.3    0.1    1.9
H    -3.1    0.8    0.2
H    -2.0   -0.5   -0.2
H    -1.4    1.2   -0.3
N    -2.3    0.7    2.7
C    -2.1    0.6    4.1
C    -1.1    1.6    4.7
O    -1.5    2.3    5.7
H    -3.3    1.0    2.4
H    -3.0    0.8    4.6
C    -1.7   -0.9    4.5
C    -1.5   -1.0    6.0
C    -1.3   -2.5    6.5
N    -2.5   -3.4    6.3
C    -2.5   -4.2    5.2
N    -3.8   -4.9    5.2
N    -1.6   -4.3    4.4
H    -0.8   -1.2    4.0
H    -2.5   -1.5    4.2
H    -2.4   -0.6    6.6
H    -0.7   -0.4    6.4
H    -1.1   -2.5    7.6
H    -0.5   -2.9    5.9
H    -3.3   -3.0    6.7
H    -3.8   -5.6    4.5
H    -4.1   -5.2    6.1
H    -1.8   -5.1    3.7
N     0.1    1.7    4.2
C     1.1    2.6    4.6
H     0.3    1.1    3.4
H     2.0    2.1    4.9
H     0.7    3.1    5.5
H     1.4    3.3    3.8
