          35
 sphere cut out from bulk 
C     0.1   -1.4    2.4
C    -0.7   -0.2    2.9
O    -0.2    0.5    3.7
H     0.8   -1.8    3.1
H     0.7   -1.1    1.5
H    -0.6   -2.2    2.0
N    -1.9    0.1    2.4
C    -2.6   -0.5    1.2
C    -3.0   -2.0    1.4
O    -3.1   -2.8    0.5
H    -2.3    1.0    2.7
H    -3.5    0.1    1.1
C    -1.9   -0.4   -0.2
C    -2.8   -0.4   -1.4
C    -2.2   -1.2   -2.5
N    -3.2   -1.5   -3.6
C    -4.2   -2.5   -3.5
N    -4.0   -3.4   -2.5
N    -5.1   -2.7   -4.3
H    -1.1   -1.2   -0.2
H    -1.3    0.6   -0.1
H    -3.0    0.6   -1.7
H    -3.8   -0.9   -1.1
H    -1.8   -2.2   -2.2
H    -1.4   -0.7   -3.0
H    -3.4   -0.8   -4.2
H    -3.6   -3.1   -1.6
H    -4.8   -4.1   -2.4
H    -5.1   -2.0   -5.1
N    -3.4   -2.3    2.7
C    -3.8   -3.6    3.1
H    -3.1   -1.6    3.4
H    -4.8   -3.5    3.7
H    -3.1   -4.1    3.8
H    -3.9   -4.2    2.2
