          35
 sphere cut out from bulk 
C    -0.2   -0.6   -0.1
C    -0.4    0.3    1.0
O     0.1    1.4    1.0
H     0.7   -1.2    0.1
H    -0.1   -0.0   -1.0
H    -1.1   -1.3   -0.3
N    -1.1   -0.0    2.1
C    -2.0   -1.2    2.4
C    -1.3   -2.5    2.0
O    -0.1   -2.7    2.2
H    -1.1    0.7    2.9
H    -2.0   -1.3    3.5
C    -3.4   -1.0    2.0
C    -3.7   -0.6    0.5
C    -5.2   -0.2    0.2
N    -5.4    0.1   -1.2
C    -5.6    1.4   -1.6
N    -4.9    2.4   -0.9
N    -6.2    1.8   -2.7
H    -3.8   -0.1    2.6
H    -4.1   -1.8    2.3
H    -3.5   -1.5   -0.2
H    -3.0    0.2    0.2
H    -5.4    0.6    0.9
H    -5.8   -1.1    0.5
H    -6.0   -0.6   -1.7
H    -4.9    3.3   -1.4
H    -3.9    2.1   -0.6
H    -6.8    1.0   -3.0
N    -2.1   -3.5    1.4
C    -1.6   -4.8    1.0
H    -3.0   -3.2    1.2
H    -2.2   -5.6    1.5
H    -0.6   -4.9    1.4
H    -1.6   -5.0   -0.0
