          35
 sphere cut out from bulk 
C     0.4   -1.3    0.3
C    -0.1   -1.1    1.7
O     0.5   -1.4    2.7
H    -0.3   -1.1   -0.5
H     0.6   -2.4    0.2
H     1.3   -0.8    0.2
N    -1.4   -0.5    1.8
C    -2.0   -0.1    3.0
C    -3.4   -0.7    3.2
O    -4.4   -0.1    2.9
H    -1.8   -0.2    0.9
H    -1.3   -0.4    3.8
C    -2.1    1.5    3.1
C    -2.5    2.0    4.5
C    -2.9    3.5    4.5
N    -3.8    3.9    3.4
C    -5.2    3.7    3.5
N    -5.6    2.5    3.9
N    -5.9    4.8    3.2
H    -2.8    1.8    2.4
H    -1.1    1.9    2.9
H    -1.8    1.8    5.3
H    -3.4    1.4    4.8
H    -2.0    4.0    4.4
H    -3.3    3.7    5.5
H    -3.6    4.8    3.1
H    -5.1    1.7    3.6
H    -6.6    2.4    3.9
H    -6.9    4.5    3.1
N    -3.4   -2.0    3.5
C    -2.3   -3.0    3.7
H    -4.3   -2.4    3.5
H    -2.5   -3.7    4.5
H    -1.4   -2.5    4.0
H    -2.1   -3.5    2.8
