          35
 sphere cut out from bulk 
C    -0.4   -1.2    0.3
C    -0.4    0.0    1.3
O     0.5    0.9    1.3
H     0.5   -1.1   -0.3
H    -1.3   -1.2   -0.3
H    -0.4   -2.1    0.9
N    -1.5    0.1    2.1
C    -2.6   -0.8    2.3
C    -3.9   -0.0    2.5
O    -4.1    0.5    3.6
H    -1.5    0.9    2.8
H    -2.7   -1.4    1.4
C    -2.3   -1.8    3.5
C    -3.3   -3.0    3.5
C    -2.9   -4.1    2.5
N    -3.8   -5.1    2.3
C    -4.8   -5.0    1.4
N    -5.8   -6.0    1.4
N    -4.9   -3.9    0.6
H    -2.5   -1.2    4.4
H    -1.3   -2.1    3.5
H    -4.3   -2.7    3.2
H    -3.3   -3.4    4.5
H    -1.9   -4.5    2.8
H    -2.7   -3.6    1.5
H    -4.1   -5.7    3.1
H    -6.5   -6.0    0.6
H    -5.4   -6.9    1.6
H    -5.6   -4.0   -0.1
N    -4.7    0.1    1.5
C    -4.6   -0.5    0.2
H    -5.5    0.7    1.7
H    -3.8   -0.1   -0.4
H    -5.5   -0.3   -0.4
H    -4.5   -1.6    0.2
