          35
 sphere cut out from bulk 
C     0.2    0.6    1.4
C    -0.2   -0.5    2.4
O     0.6   -1.1    3.0
H     1.3    0.6    1.4
H    -0.2    1.6    1.6
H    -0.1    0.3    0.3
N    -1.6   -0.7    2.6
C    -2.9   -0.3    2.1
C    -3.7   -1.5    1.6
O    -4.8   -1.8    2.0
H    -1.6   -1.4    3.4
H    -3.5   -0.0    3.0
C    -2.9    0.9    1.1
C    -4.3    1.3    0.7
C    -5.3    1.7    1.8
N    -4.8    2.7    2.7
C    -4.5    4.0    2.3
N    -3.9    4.8    3.3
N    -4.8    4.4    1.1
H    -2.3    0.6    0.2
H    -2.4    1.7    1.6
H    -4.8    0.4    0.1
H    -4.2    2.1   -0.1
H    -5.6    0.9    2.4
H    -6.2    2.1    1.3
H    -4.2    2.4    3.5
H    -3.8    5.8    3.0
H    -4.3    4.7    4.2
H    -4.6    5.4    0.9
N    -3.1   -2.4    0.7
C    -1.8   -2.3    0.0
H    -3.7   -3.1    0.4
H    -1.8   -3.0   -0.8
H    -1.0   -2.6    0.7
H    -1.6   -1.3   -0.4
