          35
 sphere cut out from bulk 
C     0.1    0.9    2.8
C    -0.6    0.2    4.0
O    -0.3    0.4    5.2
H    -0.2    0.5    1.9
H     1.2    0.9    3.0
H    -0.2    2.0    2.9
N    -1.5   -0.8    3.6
C    -2.1   -1.7    4.6
C    -2.0   -3.1    4.0
O    -2.1   -3.3    2.8
H    -1.5   -1.1    2.6
H    -1.5   -1.6    5.5
C    -3.6   -1.3    4.8
C    -3.8    0.1    5.4
C    -5.2    0.5    5.7
N    -5.5    1.8    6.1
C    -5.6    2.9    5.1
N    -5.7    4.1    5.7
N    -5.6    2.8    3.9
H    -4.0   -2.0    5.6
H    -4.2   -1.4    3.9
H    -3.4    0.9    4.6
H    -3.1    0.3    6.3
H    -5.6   -0.2    6.5
H    -5.9    0.2    4.8
H    -5.1    2.1    7.0
H    -6.3    4.2    6.5
H    -5.8    4.8    5.0
H    -5.4    1.8    3.5
N    -2.0   -4.1    4.9
C    -2.0   -5.5    4.6
H    -2.0   -3.8    5.9
H    -1.1   -6.0    4.9
H    -2.1   -5.6    3.5
H    -2.9   -6.0    5.0
