          35
 sphere cut out from bulk 
C    -0.7   -0.5   -0.4
C    -0.2   -0.3    1.0
O     0.9   -0.7    1.4
H     0.1   -1.0   -1.0
H    -0.9    0.5   -0.8
H    -1.6   -1.0   -0.4
N    -1.0    0.3    1.9
C    -2.3    0.8    1.7
C    -2.5    2.0    2.7
O    -1.9    2.0    3.8
H    -0.6    0.4    2.9
H    -2.4    1.2    0.7
C    -3.5   -0.2    1.9
C    -3.6   -0.9    3.2
C    -4.5   -0.1    4.3
N    -4.5   -0.7    5.6
C    -3.4   -0.7    6.5
N    -2.6    0.4    6.4
N    -3.4   -1.6    7.4
H    -3.3   -1.0    1.1
H    -4.5    0.3    1.6
H    -2.6   -1.0    3.7
H    -4.0   -1.9    3.1
H    -5.5   -0.1    3.9
H    -4.2    0.9    4.3
H    -5.0   -1.6    5.7
H    -2.5    0.9    5.5
H    -1.7    0.3    6.9
H    -2.6   -1.5    8.0
N    -3.4    3.0    2.4
C    -4.1    3.2    1.1
H    -3.5    3.7    3.1
H    -4.6    4.2    1.2
H    -4.9    2.5    1.0
H    -3.5    3.1    0.3
