          35
 sphere cut out from bulk 
C    -0.5    0.2    0.1
C    -0.3    0.3    1.6
O     0.8    0.6    2.1
H    -1.2   -0.6   -0.2
H     0.5    0.0   -0.4
H    -0.8    1.2   -0.3
N    -1.4    0.1    2.3
C    -1.6    0.4    3.7
C    -1.0    1.8    4.0
O    -1.5    2.8    3.5
H    -2.3   -0.1    1.8
H    -2.6    0.6    3.9
C    -1.3   -0.8    4.7
C    -0.2   -1.8    4.3
C    -0.6   -3.2    3.9
N    -1.6   -3.2    2.8
C    -1.3   -3.0    1.5
N     0.1   -3.0    1.1
N    -2.2   -2.9    0.5
H    -2.2   -1.4    4.7
H    -1.2   -0.4    5.7
H     0.5   -1.9    5.2
H     0.5   -1.3    3.5
H    -1.1   -3.7    4.8
H     0.2   -3.8    3.7
H    -2.6   -3.1    3.0
H     0.2   -2.8    0.2
H     0.7   -2.5    1.8
H    -3.1   -3.1    0.9
N     0.1    2.0    4.9
C     1.1    1.1    5.3
H     0.2    3.0    5.0
H     2.0    1.7    5.7
H     1.5    0.6    4.4
H     0.9    0.4    6.1
