          35
 sphere cut out from bulk 
C     0.2    0.1   -0.2
C     0.1    0.4    1.3
O     0.9    1.1    1.9
H     1.2   -0.4   -0.4
H     0.3    1.1   -0.8
H    -0.6   -0.5   -0.7
N    -1.1   -0.1    1.8
C    -1.5   -0.1    3.2
C    -2.7    0.8    3.6
O    -3.5    0.4    4.5
H    -1.7   -0.6    1.2
H    -2.0   -1.1    3.4
C    -0.4   -0.0    4.3
C    -0.0    1.4    4.8
C     1.4    1.4    5.5
N     2.4    1.1    4.5
C     3.7    1.1    4.9
N     4.6    0.9    3.8
N     4.2    1.2    6.1
H     0.5   -0.5    3.9
H    -0.8   -0.6    5.2
H    -0.8    1.7    5.5
H     0.0    2.1    4.0
H     1.4    0.7    6.3
H     1.5    2.4    6.0
H     2.2    1.3    3.6
H     5.5    0.7    4.1
H     4.2    0.2    3.1
H     3.5    1.4    6.8
N    -2.9    2.0    3.0
C    -2.1    2.8    2.0
H    -3.7    2.5    3.3
H    -2.3    3.8    2.1
H    -2.3    2.5    1.0
H    -1.0    2.6    2.2
