          35
 sphere cut out from bulk 
C    -3.8    3.3    1.9
C    -2.8    2.2    2.1
O    -2.1    1.8    1.1
H    -4.3    3.2    1.0
H    -3.3    4.3    1.9
H    -4.5    3.3    2.8
N    -2.7    1.6    3.3
C    -1.6    0.7    3.7
C    -1.9   -0.7    3.4
O    -2.2   -1.5    4.3
H    -3.2    2.0    4.1
H    -0.8    1.0    3.0
C    -1.1    1.0    5.1
C     0.3    0.5    5.5
C     1.4    1.0    4.6
N     1.5    2.4    4.4
C     0.8    3.0    3.3
N     1.1    2.4    2.1
N     0.1    4.0    3.5
H    -1.8    0.5    5.8
H    -1.1    2.1    5.3
H     0.3   -0.6    5.5
H     0.5    0.8    6.5
H     1.4    0.5    3.6
H     2.4    0.6    5.0
H     1.3    3.0    5.2
H     0.6    2.7    1.3
H     2.0    2.0    1.9
H    -0.2    4.5    2.6
N    -2.0   -1.0    2.1
C    -2.5   -2.3    1.6
H    -1.9   -0.2    1.4
H    -1.7   -2.7    0.8
H    -3.4   -2.2    1.1
H    -2.5   -3.0    2.4
