          35
 sphere cut out from bulk 
C    -0.6   -0.7    0.1
C    -0.5   -0.1    1.5
O     0.5    0.0    2.1
H     0.4   -0.7   -0.3
H    -1.2   -0.1   -0.5
H    -0.9   -1.7    0.2
N    -1.7    0.4    2.1
C    -3.0    0.1    1.7
C    -3.9    1.2    1.2
O    -4.6    1.1    0.2
H    -1.6    0.8    3.0
H    -3.0   -0.6    0.8
C    -3.8   -0.8    2.8
C    -3.0   -2.0    3.2
C    -2.1   -1.9    4.4
N    -1.1   -2.9    4.5
C     0.2   -2.7    5.1
N     0.7   -1.4    4.8
N     0.7   -3.6    5.8
H    -4.8   -1.1    2.4
H    -4.0   -0.2    3.7
H    -2.4   -2.4    2.3
H    -3.7   -2.9    3.4
H    -2.7   -1.8    5.3
H    -1.6   -0.9    4.3
H    -1.4   -3.8    4.8
H     1.7   -1.4    5.2
H     0.6   -1.0    3.9
H     1.6   -3.4    6.1
N    -4.0    2.4    1.9
C    -3.3    2.8    3.1
H    -4.6    3.1    1.5
H    -3.4    2.0    3.9
H    -3.9    3.6    3.6
H    -2.3    3.1    3.0
