          35
 sphere cut out from bulk 
C     0.1   -0.1    0.2
C     0.0    0.0    1.7
O     1.0    0.1    2.4
H     1.1    0.2   -0.1
H    -0.7    0.5   -0.3
H    -0.1   -1.1   -0.1
N    -1.2    0.0    2.4
C    -2.6    0.0    1.8
C    -2.8   -1.1    0.8
O    -3.1   -0.9   -0.4
H    -1.1    0.1    3.4
H    -3.2   -0.2    2.7
C    -3.0    1.4    1.3
C    -4.6    1.5    1.1
C    -5.0    2.9    0.6
N    -6.5    2.9    0.5
C    -7.1    4.2    0.4
N    -8.4    4.0    0.1
N    -6.4    5.2    0.6
H    -2.6    1.5    0.3
H    -2.7    2.1    1.9
H    -5.0    1.3    2.1
H    -4.9    0.7    0.5
H    -4.5    3.1   -0.3
H    -4.7    3.6    1.3
H    -6.9    2.2   -0.1
H    -9.0    4.9    0.2
H    -8.9    3.2    0.6
H    -7.0    6.0    0.6
N    -2.6   -2.4    1.2
C    -2.1   -2.9    2.6
H    -2.7   -3.1    0.5
H    -2.4   -3.9    2.7
H    -2.7   -2.3    3.4
H    -1.1   -2.7    2.8
