          35
 sphere cut out from bulk 
C    -0.3   -0.9    0.1
C    -0.3   -0.5    1.6
O     0.8   -0.3    2.1
H     0.8   -1.0   -0.2
H    -0.7   -0.1   -0.5
H    -0.8   -1.8   -0.1
N    -1.4   -0.5    2.2
C    -2.8   -0.3    1.7
C    -3.3   -1.5    0.9
O    -3.3   -2.6    1.4
H    -1.4   -0.2    3.2
H    -3.5   -0.4    2.6
C    -3.0    1.2    1.3
C    -3.1    2.2    2.4
C    -1.8    2.4    3.2
N    -1.9    1.5    4.4
C    -0.8    1.4    5.3
N    -1.2    1.4    6.6
N     0.5    1.3    5.0
H    -4.0    1.2    0.7
H    -2.3    1.4    0.5
H    -3.9    2.1    3.0
H    -3.2    3.2    1.9
H    -1.8    3.5    3.6
H    -0.9    2.2    2.7
H    -2.8    1.6    4.9
H    -0.4    1.4    7.3
H    -1.8    2.1    6.9
H     0.6    1.1    4.0
N    -3.7   -1.4   -0.4
C    -3.6   -0.3   -1.4
H    -4.0   -2.3   -0.8
H    -4.5    0.5   -1.3
H    -3.7   -0.7   -2.4
H    -2.7    0.2   -1.4
