          35
 sphere cut out from bulk 
C    -0.3   -2.0    0.6
C    -0.1   -0.9    1.5
O     0.9   -0.2    1.4
H     0.5   -2.7    0.6
H    -0.4   -1.6   -0.5
H    -1.2   -2.6    0.8
N    -1.0   -0.7    2.5
C    -1.0    0.4    3.5
C    -0.0    0.1    4.7
O    -0.4    0.1    5.8
H    -1.8   -1.4    2.6
H    -0.5    1.2    2.9
C    -2.4    0.8    3.9
C    -3.2   -0.4    4.5
C    -4.5    0.1    5.1
N    -5.4   -0.9    5.5
C    -6.2   -1.7    4.7
N    -6.8   -2.7    5.3
N    -6.4   -1.5    3.4
H    -2.9    1.2    3.1
H    -2.3    1.6    4.7
H    -2.6   -0.9    5.2
H    -3.5   -1.1    3.7
H    -5.1    0.8    4.3
H    -4.3    0.8    5.9
H    -5.1   -1.4    6.4
H    -7.2   -2.5    6.2
H    -7.5   -3.2    4.7
H    -5.8   -0.7    3.0
N     1.3   -0.0    4.3
C     2.3   -0.3    5.2
H     1.5    0.0    3.3
H     1.9   -0.3    6.2
H     3.1    0.4    5.2
H     2.8   -1.3    5.0
