          35
 sphere cut out from bulk 
C    -3.6   -3.1    1.4
C    -3.2   -2.7    2.7
O    -3.7   -3.2    3.8
H    -4.6   -3.0    1.2
H    -3.4   -4.2    1.3
H    -3.0   -2.6    0.5
N    -2.3   -1.7    2.8
C    -1.8   -1.0    4.0
C    -0.8   -1.8    4.9
O     0.2   -1.3    5.3
H    -1.9   -1.3    1.9
H    -1.2   -0.1    3.6
C    -2.9   -0.3    4.8
C    -3.8    0.6    4.0
C    -4.9    1.3    4.9
N    -4.5    2.2    5.9
C    -4.0    3.5    5.7
N    -3.5    4.1    6.8
N    -4.1    4.1    4.5
H    -2.4    0.2    5.7
H    -3.5   -1.1    5.3
H    -4.3    0.1    3.2
H    -3.2    1.4    3.6
H    -5.5    0.5    5.4
H    -5.6    1.8    4.2
H    -4.0    1.7    6.7
H    -4.0    4.0    7.6
H    -3.3    5.0    6.6
H    -4.4    3.5    3.8
N    -1.3   -3.0    5.3
C    -0.5   -3.9    6.2
H    -2.2   -3.3    4.9
H    -1.0   -4.0    7.1
H     0.5   -3.4    6.4
H    -0.3   -4.8    5.7
