          35
 sphere cut out from bulk 
C    -1.4   -4.8    2.6
C    -1.1   -3.3    2.6
O    -0.4   -2.7    1.8
H    -1.3   -5.2    3.6
H    -0.7   -5.2    1.9
H    -2.5   -5.0    2.3
N    -1.8   -2.6    3.6
C    -1.8   -1.1    3.7
C    -0.5   -0.6    4.5
O    -0.6   -0.1    5.6
H    -2.5   -3.1    4.2
H    -1.7   -0.7    2.7
C    -3.0   -0.6    4.4
C    -4.3   -0.5    3.5
C    -4.8   -1.9    2.8
N    -5.0   -2.9    3.8
C    -5.2   -4.2    3.4
N    -5.5   -5.0    4.5
N    -5.0   -4.7    2.3
H    -2.8    0.4    4.8
H    -3.2   -1.2    5.3
H    -4.1    0.2    2.7
H    -5.1   -0.1    4.1
H    -4.0   -2.2    2.1
H    -5.7   -1.7    2.2
H    -5.5   -2.6    4.6
H    -5.0   -4.9    5.4
H    -5.5   -6.0    4.2
H    -4.9   -4.0    1.6
N     0.7   -0.9    3.8
C     1.9   -0.6    4.3
H     0.6   -1.4    2.9
H     1.8    0.0    5.2
H     2.6   -0.0    3.6
H     2.5   -1.5    4.6
