          35
 sphere cut out from bulk 
C     0.1   -0.7    0.1
C     0.2   -0.2    1.6
O     1.3   -0.1    2.1
H     1.1   -0.7   -0.3
H    -0.6   -0.0   -0.5
H    -0.3   -1.7    0.1
N    -0.9    0.2    2.2
C    -2.3   -0.1    1.8
C    -3.2    1.2    1.7
O    -4.4    1.1    1.6
H    -0.8    0.4    3.2
H    -2.3   -0.5    0.8
C    -3.0   -1.1    2.7
C    -2.4   -2.5    2.6
C    -2.7   -3.2    1.3
N    -1.9   -4.4    1.1
C    -1.9   -5.1   -0.1
N    -1.1   -6.2   -0.0
N    -2.5   -4.7   -1.2
H    -4.1   -1.1    2.5
H    -2.9   -0.7    3.8
H    -2.8   -3.1    3.5
H    -1.3   -2.4    2.7
H    -2.5   -2.5    0.5
H    -3.8   -3.4    1.3
H    -1.8   -5.0    1.9
H    -1.0   -6.7   -0.9
H    -0.2   -6.1    0.5
H    -3.1   -4.0   -1.1
N    -2.5    2.4    1.8
C    -3.1    3.7    1.6
H    -1.5    2.3    1.9
H    -2.8    4.2    0.7
H    -2.9    4.3    2.5
H    -4.2    3.5    1.6
