          35
 sphere cut out from bulk 
C     0.0   -0.5   -0.3
C     0.1   -0.2    1.2
O     1.1    0.0    1.8
H    -1.0   -0.7   -0.7
H     0.6   -1.4   -0.5
H     0.5    0.3   -0.8
N    -1.2   -0.3    1.9
C    -1.3   -0.2    3.3
C    -2.6   -0.8    3.8
O    -2.7   -1.6    4.7
H    -1.9   -0.7    1.4
H    -0.5   -0.9    3.8
C    -1.1    1.2    3.8
C    -0.9    1.3    5.4
C     0.5    0.9    5.9
N     0.8   -0.5    5.8
C     2.1   -0.9    5.5
N     2.7   -0.2    4.4
N     2.6   -1.9    6.1
H    -1.9    1.8    3.5
H    -0.2    1.6    3.4
H    -1.7    0.7    5.9
H    -1.1    2.4    5.7
H     0.6    1.3    7.0
H     1.3    1.5    5.3
H     0.4   -1.1    6.5
H     3.6   -0.6    4.1
H     2.1   -0.1    3.6
H     3.4   -2.3    5.7
N    -3.7   -0.3    3.1
C    -5.1   -0.7    3.5
H    -3.6    0.5    2.5
H    -5.7   -0.7    2.6
H    -5.5    0.1    4.2
H    -5.1   -1.6    4.0
