          35
 sphere cut out from bulk 
C    -1.6   -0.4    0.3
C    -1.1   -0.5    1.7
O    -0.2   -1.3    2.1
H    -2.6   -0.0    0.2
H    -1.6   -1.4   -0.1
H    -1.0    0.2   -0.3
N    -1.6    0.5    2.6
C    -1.3    0.6    4.0
C    -2.0    1.9    4.6
O    -2.4    1.8    5.7
H    -2.4    1.0    2.2
H    -1.8   -0.2    4.5
C     0.2    0.5    4.4
C     1.2    1.6    4.0
C     2.0    1.2    2.7
N     1.3    1.6    1.5
C     1.6    1.1    0.2
N     2.0   -0.3    0.3
N     1.6    1.8   -0.8
H     0.5   -0.5    4.2
H     0.1    0.6    5.5
H     1.9    1.6    4.8
H     0.8    2.6    3.9
H     2.2    0.2    2.7
H     3.0    1.8    2.7
H     1.2    2.6    1.3
H     2.1   -0.7   -0.6
H     1.4   -0.9    0.9
H     1.8    1.3   -1.7
N    -2.2    3.0    3.8
C    -1.5    3.5    2.6
H    -2.7    3.7    4.3
H    -0.8    4.3    2.8
H    -2.3    3.8    1.8
H    -0.9    2.7    2.1
