          35
 sphere cut out from bulk 
C     0.9   -0.2   -0.2
C     0.2    0.0    1.2
O    -0.6    0.9    1.3
H     1.6   -1.0   -0.2
H     1.4    0.7   -0.5
H     0.1   -0.4   -0.9
N     0.6   -0.8    2.2
C     0.1   -0.7    3.5
C     1.2   -1.3    4.4
O     2.0   -2.1    4.0
H     1.4   -1.5    2.1
H     0.0    0.4    3.7
C    -1.3   -1.3    3.7
C    -1.3   -2.9    3.5
C    -0.8   -3.7    4.7
N    -1.6   -3.5    5.9
C    -1.0   -3.6    7.2
N    -1.9   -3.5    8.2
N     0.3   -3.6    7.3
H    -1.9   -0.8    3.0
H    -1.6   -1.1    4.7
H    -0.8   -3.1    2.6
H    -2.4   -3.1    3.3
H     0.2   -3.6    4.9
H    -1.0   -4.8    4.4
H    -2.6   -3.4    5.9
H    -1.6   -3.7    9.1
H    -2.8   -4.1    8.0
H     0.5   -3.7    8.3
N     1.1   -1.1    5.8
C     0.2   -0.2    6.5
H     1.6   -1.8    6.3
H     0.7    0.2    7.4
H    -0.7   -0.7    6.8
H    -0.0    0.7    5.8
