          35
 sphere cut out from bulk 
C     0.6   -1.0    0.5
C     0.3   -1.0    2.0
O     0.9   -1.6    2.8
H     1.6   -0.6    0.4
H    -0.1   -0.4   -0.1
H     0.6   -2.0    0.2
N    -0.8   -0.2    2.4
C    -1.3   -0.1    3.7
C    -2.2   -1.3    4.1
O    -3.4   -1.3    4.2
H    -1.4    0.2    1.6
H    -0.3   -0.2    4.4
C    -2.0    1.2    4.0
C    -2.2    1.5    5.4
C    -3.0    2.9    5.6
N    -3.2    3.1    7.0
C    -3.7    4.3    7.5
N    -4.0    4.3    8.8
N    -4.0    5.4    6.8
H    -3.0    1.2    3.4
H    -1.4    2.0    3.5
H    -1.3    1.6    6.0
H    -2.9    0.7    5.9
H    -3.9    2.8    5.0
H    -2.4    3.7    5.2
H    -3.5    2.3    7.6
H    -4.3    5.3    9.1
H    -3.3    3.9    9.4
H    -3.9    5.2    5.8
N    -1.4   -2.5    4.4
C    -2.1   -3.8    4.6
H    -0.5   -2.4    4.1
H    -1.6   -4.3    5.4
H    -2.0   -4.4    3.7
H    -3.1   -3.6    4.9
