          35
 sphere cut out from bulk 
C    -1.0   -0.3   -1.0
C    -0.4   -0.2    0.5
O     0.8   -0.2    0.7
H    -1.6    0.5   -1.2
H    -1.5   -1.3   -1.1
H    -0.1   -0.3   -1.6
N    -1.3   -0.1    1.5
C    -2.8    0.0    1.5
C    -3.5   -1.1    0.7
O    -4.2   -0.9   -0.2
H    -0.8    0.0    2.4
H    -3.1   -0.1    2.6
C    -3.3    1.4    1.1
C    -4.8    1.6    1.4
C    -5.5    2.5    0.3
N    -5.5    1.8   -1.0
C    -4.6    2.2   -2.0
N    -4.4    3.6   -2.1
N    -4.0    1.4   -2.8
H    -3.1    1.5   -0.0
H    -2.7    2.1    1.6
H    -4.9    2.2    2.4
H    -5.3    0.7    1.5
H    -5.0    3.5    0.2
H    -6.5    2.6    0.6
H    -5.4    0.8   -0.9
H    -3.9    3.8   -3.0
H    -5.3    4.1   -2.0
H    -4.0    0.4   -2.5
N    -3.2   -2.4    1.1
C    -2.3   -2.9    2.2
H    -3.6   -3.1    0.6
H    -2.6   -3.9    2.5
H    -2.5   -2.3    3.1
H    -1.3   -2.8    2.0
