          35
 sphere cut out from bulk 
C    -1.1   -0.0    0.0
C    -0.4    0.2    1.3
O     0.8    0.3    1.4
H    -2.2   -0.1    0.1
H    -0.7   -0.9   -0.5
H    -0.8    0.8   -0.7
N    -1.2    0.2    2.4
C    -0.8    0.2    3.9
C    -0.2    1.5    4.3
O    -0.6    2.0    5.4
H    -2.2    0.1    2.3
H    -1.7    0.1    4.4
C     0.1   -1.0    4.2
C     0.6   -1.0    5.7
C    -0.6   -1.2    6.7
N    -0.2   -1.2    8.1
C    -0.1   -0.0    8.8
N    -0.7    1.1    8.3
N     0.5    0.1   10.0
H     1.0   -1.0    3.6
H    -0.4   -1.9    4.0
H     1.1   -0.1    6.0
H     1.3   -1.8    5.8
H    -1.1   -2.2    6.5
H    -1.4   -0.5    6.5
H     0.4   -1.9    8.4
H    -0.7    1.3    7.3
H    -0.5    1.9    8.9
H     0.8   -0.9   10.3
N     0.8    2.0    3.6
C     1.5    3.3    4.0
H     1.1    1.5    2.8
H     1.4    4.0    3.2
H     2.6    3.1    4.2
H     1.0    3.7    4.9
