          35
 sphere cut out from bulk 
C    -1.8    1.3   -0.1
C    -1.3    0.8    1.2
O    -0.1    0.4    1.5
H    -1.1    2.1   -0.4
H    -2.8    1.6   -0.2
H    -1.6    0.5   -0.9
N    -2.3    0.8    2.2
C    -2.0    0.2    3.5
C    -3.3   -0.6    3.9
O    -4.4   -0.3    3.4
H    -3.2    0.9    2.0
H    -1.1   -0.4    3.5
C    -1.8    1.3    4.6
C    -0.6    2.2    4.4
C    -0.3    3.2    5.5
N     0.8    4.0    5.2
C     1.4    4.9    6.0
N     0.5    5.4    7.0
N     2.7    5.2    6.1
H    -1.8    0.8    5.6
H    -2.7    2.0    4.6
H    -0.7    2.7    3.4
H     0.3    1.5    4.3
H    -0.2    2.7    6.4
H    -1.2    3.9    5.5
H     1.5    3.5    4.6
H     0.9    6.2    7.5
H    -0.4    5.6    6.6
H     3.2    4.7    5.5
N    -3.1   -1.6    4.8
C    -1.9   -2.1    5.3
H    -4.0   -2.1    5.0
H    -2.1   -3.0    5.8
H    -1.5   -1.4    6.1
H    -1.1   -2.3    4.6
