          35
 sphere cut out from bulk 
C    -0.2    0.3    2.7
C    -0.1   -1.2    2.6
O     0.8   -1.9    3.0
H    -0.1    0.7    1.7
H     0.7    0.6    3.3
H    -1.1    0.7    3.1
N    -1.2   -1.9    2.0
C    -2.4   -1.2    1.3
C    -3.6   -1.1    2.2
O    -4.7   -0.6    1.7
H    -1.1   -2.9    1.9
H    -2.1   -0.2    1.1
C    -2.7   -2.0    0.0
C    -1.8   -1.7   -1.2
C    -0.3   -2.0   -1.0
N     0.4   -1.8   -2.2
C     1.8   -1.8   -2.3
N     2.2   -1.7   -3.6
N     2.6   -1.9   -1.3
H    -3.7   -1.7   -0.2
H    -2.7   -3.1    0.2
H    -1.9   -0.6   -1.4
H    -2.2   -2.2   -2.0
H    -0.2   -3.0   -0.7
H     0.1   -1.4   -0.2
H    -0.1   -2.1   -3.1
H     3.3   -1.6   -3.6
H     1.8   -0.9   -4.2
H     2.1   -2.1   -0.5
N    -3.5   -1.5    3.5
C    -4.6   -1.4    4.5
H    -2.6   -1.9    3.8
H    -4.3   -0.8    5.3
H    -4.9   -2.4    4.8
H    -5.5   -1.0    4.0
