          35
 sphere cut out from bulk 
C     0.2    0.4    0.6
C    -0.1    0.4    2.1
O     0.8    0.6    2.9
H     1.2    0.2    0.5
H    -0.0    1.4    0.2
H    -0.5   -0.3    0.0
N    -1.4    0.2    2.5
C    -2.6    0.0    1.7
C    -2.7   -1.3    0.9
O    -3.5   -1.4   -0.1
H    -1.5    0.3    3.5
H    -3.4   -0.1    2.5
C    -3.0    1.3    0.9
C    -4.5    1.6    0.8
C    -5.2    2.0    2.1
N    -4.6    3.2    2.7
C    -4.5    4.5    2.1
N    -5.6    4.7    1.3
N    -3.6    5.3    2.2
H    -2.6    1.1   -0.1
H    -2.5    2.1    1.3
H    -5.0    0.7    0.4
H    -4.6    2.4    0.0
H    -5.1    1.2    2.8
H    -6.2    2.2    1.9
H    -3.7    3.0    3.2
H    -5.6    5.7    1.0
H    -6.5    4.5    1.7
H    -2.8    4.9    2.7
N    -2.0   -2.3    1.4
C    -2.0   -3.6    0.8
H    -1.4   -2.1    2.2
H    -2.2   -4.4    1.5
H    -1.0   -3.9    0.4
H    -2.7   -3.6   -0.0
