          35
 sphere cut out from bulk 
C    -1.9   -0.7   -1.6
C    -0.7    0.0   -0.9
O     0.2    0.4   -1.6
H    -1.8   -0.7   -2.6
H    -2.9   -0.1   -1.4
H    -2.0   -1.7   -1.2
N    -0.8    0.2    0.4
C    -1.9   -0.1    1.4
C    -1.8    0.9    2.5
O    -0.7    1.4    2.8
H    -0.0    0.8    0.8
H    -2.8    0.0    0.9
C    -1.8   -1.6    1.9
C    -0.4   -2.0    2.5
C    -0.4   -2.1    4.0
N    -0.5   -0.9    4.7
C    -1.4   -0.4    5.6
N    -2.4   -1.4    6.0
N    -1.6    0.8    6.1
H    -2.0   -2.2    1.0
H    -2.6   -1.7    2.6
H     0.4   -1.3    2.2
H    -0.2   -3.0    2.1
H     0.5   -2.7    4.3
H    -1.3   -2.8    4.3
H     0.0   -0.1    4.3
H    -2.9   -1.0    6.8
H    -2.0   -2.3    6.2
H    -0.9    1.4    5.6
N    -2.9    1.1    3.3
C    -4.2    0.5    3.2
H    -2.6    1.5    4.2
H    -4.2   -0.5    3.8
H    -4.4    0.2    2.2
H    -4.9    1.1    3.6
