          35
 sphere cut out from bulk 
C    -0.6   -0.3   -0.0
C     0.2    0.1    1.2
O     1.3   -0.2    1.4
H    -0.7    0.6   -0.7
H    -1.6   -0.7    0.2
H     0.0   -1.1   -0.5
N    -0.5    0.9    2.1
C    -1.9    1.4    2.1
C    -2.2    2.2    0.8
O    -1.5    3.0    0.4
H     0.0    1.1    3.0
H    -2.6    0.5    2.2
C    -2.1    2.4    3.3
C    -1.9    1.8    4.7
C    -0.6    2.0    5.4
N     0.5    1.1    4.9
C     0.6   -0.3    5.2
N    -0.4   -0.7    6.2
N     1.3   -1.1    4.6
H    -3.1    2.8    3.2
H    -1.4    3.2    3.1
H    -2.2    0.8    4.8
H    -2.7    2.4    5.4
H    -0.7    1.9    6.5
H    -0.2    3.0    5.2
H     1.4    1.5    4.7
H    -0.2   -1.7    6.4
H    -0.5   -0.1    7.0
H     1.8   -0.7    3.8
N    -3.4    1.8    0.3
C    -4.0    2.5   -0.9
H    -3.9    1.1    0.7
H    -5.0    2.9   -0.7
H    -4.0    1.8   -1.7
H    -3.3    3.3   -1.2
