          35
 sphere cut out from bulk 
C    -0.3   -0.1    0.1
C    -0.2    0.0    1.6
O     0.9    0.1    2.1
H    -0.6   -1.1   -0.2
H     0.7    0.1   -0.4
H    -1.1    0.6   -0.4
N    -1.3   -0.0    2.3
C    -2.7    0.2    2.0
C    -3.2   -0.5    0.8
O    -2.9   -1.7    0.6
H    -1.1    0.1    3.3
H    -3.3   -0.3    2.8
C    -3.1    1.7    2.2
C    -2.4    2.8    1.3
C    -1.0    3.2    1.8
N    -0.9    3.4    3.2
C     0.3    3.5    3.9
N     1.4    2.7    3.4
N     0.4    4.4    4.9
H    -3.0    2.0    3.2
H    -4.2    1.8    2.0
H    -3.0    3.7    1.4
H    -2.4    2.5    0.3
H    -0.7    4.1    1.2
H    -0.3    2.4    1.5
H    -1.5    4.1    3.6
H     1.1    1.8    3.0
H     2.2    2.7    4.0
H     1.2    4.3    5.4
N    -3.9    0.2   -0.1
C    -4.5   -0.5   -1.3
H    -4.1    1.1    0.0
H    -5.6   -0.4   -1.4
H    -4.2   -1.5   -1.3
H    -4.1    0.0   -2.2
