          35
 sphere cut out from bulk 
C    -0.2    0.1    0.1
C    -0.2   -0.1    1.6
O     0.7   -0.8    2.2
H     0.7    0.7   -0.2
H    -1.1    0.7   -0.3
H    -0.1   -0.9   -0.4
N    -1.2    0.5    2.3
C    -1.3    0.5    3.8
C    -1.3   -0.9    4.4
O    -0.7   -1.0    5.5
H    -1.9    1.1    1.8
H    -0.3    1.0    4.2
C    -2.5    1.3    4.2
C    -2.5    1.6    5.7
C    -3.8    2.4    6.1
N    -3.9    3.8    5.5
C    -4.4    4.0    4.2
N    -5.5    3.2    3.9
N    -4.0    5.0    3.4
H    -2.5    2.3    3.6
H    -3.4    0.8    3.9
H    -2.5    0.7    6.3
H    -1.6    2.2    6.0
H    -3.8    2.6    7.2
H    -4.7    1.9    5.8
H    -3.1    4.4    5.7
H    -6.1    3.1    4.6
H    -5.9    3.6    3.0
H    -3.1    5.4    3.7
N    -2.0   -1.9    3.9
C    -2.8   -2.0    2.7
H    -1.9   -2.8    4.4
H    -3.4   -2.9    2.7
H    -3.4   -1.1    2.5
H    -2.1   -2.2    1.8
