          35
 sphere cut out from bulk 
C    -1.3    1.8    0.2
C    -0.4    1.2    1.2
O     0.8    1.5    1.3
H    -0.7    2.1   -0.7
H    -1.8    2.8    0.6
H    -2.2    1.2   -0.1
N    -0.9    0.2    2.0
C    -2.4   -0.2    2.3
C    -3.0   -1.0    1.2
O    -4.2   -1.1    1.1
H    -0.3   -0.1    2.7
H    -2.3   -0.9    3.1
C    -3.2    1.0    2.8
C    -2.7    1.6    4.0
C    -3.5    3.0    4.4
N    -3.2    4.0    3.4
C    -3.9    4.2    2.3
N    -5.3    4.1    2.4
N    -3.3    4.5    1.2
H    -4.2    0.6    2.9
H    -3.3    1.7    1.9
H    -2.8    1.0    4.9
H    -1.6    1.9    4.0
H    -3.1    3.3    5.4
H    -4.5    2.8    4.4
H    -2.2    4.2    3.2
H    -5.8    4.3    1.6
H    -5.7    4.4    3.3
H    -3.9    4.8    0.5
N    -2.2   -1.6    0.3
C    -2.6   -2.4   -0.8
H    -1.2   -1.4    0.4
H    -2.2   -3.4   -0.8
H    -2.3   -2.0   -1.8
H    -3.7   -2.5   -0.8
