          35
 sphere cut out from bulk 
C    -0.6    2.0   -0.1
C    -0.3    1.8    1.4
O     0.6    2.3    1.9
H    -0.7    3.1   -0.3
H    -1.4    1.5   -0.5
H     0.3    1.7   -0.7
N    -1.2    0.9    2.0
C    -0.9    0.5    3.3
C    -1.8   -0.8    3.6
O    -1.3   -1.8    4.3
H    -1.8    0.4    1.4
H     0.1    0.1    3.4
C    -1.2    1.6    4.4
C    -0.7    1.3    5.8
C    -1.8    1.0    6.9
N    -2.5   -0.3    6.6
C    -3.6   -0.7    7.3
N    -4.0   -1.9    7.0
N    -4.3    0.1    8.1
H    -2.3    1.8    4.4
H    -0.8    2.5    4.0
H    -0.1    2.1    6.2
H     0.0    0.4    5.8
H    -2.5    1.8    6.9
H    -1.3    1.0    7.9
H    -2.0   -1.0    6.1
H    -4.7   -2.3    7.7
H    -3.3   -2.6    6.9
H    -4.0    1.0    8.2
N    -3.0   -0.8    3.1
C    -4.0   -1.9    3.5
H    -3.4    0.1    2.8
H    -4.4   -1.8    4.5
H    -4.8   -1.8    2.7
H    -3.5   -2.8    3.3
