          35
 sphere cut out from bulk 
C     0.3   -0.7   -0.2
C     0.3   -0.6    1.3
O     1.2   -0.9    2.0
H     1.3   -0.2   -0.6
H    -0.5   -0.2   -0.8
H     0.4   -1.7   -0.5
N    -0.9   -0.1    1.8
C    -1.4   -0.0    3.1
C    -1.4    1.4    3.9
O    -2.3    1.6    4.6
H    -1.6    0.2    1.1
H    -2.5   -0.1    3.0
C    -0.9   -1.1    4.1
C    -1.9   -2.3    4.2
C    -3.3   -1.9    4.6
N    -3.4   -1.0    5.8
C    -3.1   -1.4    7.0
N    -2.9   -0.3    7.9
N    -2.9   -2.6    7.3
H    -0.8   -0.7    5.1
H     0.1   -1.5    3.8
H    -1.5   -3.0    4.9
H    -2.0   -2.8    3.2
H    -3.9   -2.9    4.9
H    -3.9   -1.5    3.8
H    -3.2   -0.0    5.5
H    -3.0   -0.6    8.9
H    -3.5    0.5    7.7
H    -2.8   -2.8    8.3
N    -0.3    2.2    3.8
C     1.0    2.0    3.1
H    -0.4    3.0    4.3
H     1.0    2.4    2.1
H     1.3    1.0    3.1
H     1.7    2.6    3.7
