          35
 sphere cut out from bulk 
C    -1.0    0.6   -0.3
C    -0.8   -0.3    1.0
O     0.1   -1.1    1.1
H    -0.7   -0.1   -1.1
H    -0.3    1.4   -0.2
H    -2.0    0.9   -0.4
N    -1.7   -0.0    2.0
C    -1.6   -0.4    3.4
C    -0.7    0.7    4.1
O     0.0    1.4    3.5
H    -2.3    0.8    1.8
H    -2.6   -0.3    3.8
C    -1.2   -1.9    3.6
C     0.3   -2.1    4.0
C     0.6   -3.6    4.0
N     2.0   -3.8    4.4
C     2.6   -5.0    4.5
N     1.7   -6.0    4.9
N     3.8   -5.2    4.1
H    -1.5   -2.4    2.8
H    -1.8   -2.2    4.5
H     0.6   -1.6    5.0
H     0.9   -1.6    3.2
H     0.4   -4.0    3.0
H    -0.0   -4.1    4.7
H     2.7   -3.1    3.9
H     2.2   -6.9    5.2
H     1.0   -5.8    5.6
H     4.2   -6.1    4.3
N    -0.9    0.7    5.5
C    -1.7   -0.1    6.4
H    -0.2    1.4    5.9
H    -1.8    0.4    7.3
H    -1.2   -1.1    6.6
H    -2.7   -0.3    6.0
