          35
 sphere cut out from bulk 
C    -0.5    1.0   -0.6
C    -0.1    0.7    0.9
O     1.0    0.7    1.2
H     0.4    1.3   -1.1
H    -1.3    1.8   -0.7
H    -0.9    0.1   -1.1
N    -1.2    0.5    1.8
C    -2.5    0.1    1.4
C    -3.6    0.7    2.4
O    -4.8    0.3    2.3
H    -0.8    0.2    2.7
H    -2.8    0.6    0.5
C    -2.7   -1.4    1.2
C    -3.3   -2.4    2.2
C    -2.6   -2.3    3.6
N    -1.1   -2.6    3.6
C    -0.2   -1.6    3.9
N     1.1   -1.9    3.4
N    -0.4   -0.5    4.5
H    -1.7   -1.8    0.8
H    -3.4   -1.5    0.3
H    -3.2   -3.4    1.9
H    -4.3   -2.1    2.4
H    -3.1   -3.1    4.3
H    -2.7   -1.4    4.1
H    -0.8   -3.4    3.1
H     1.7   -1.1    3.5
H     1.1   -2.2    2.4
H    -1.3   -0.5    5.0
N    -3.1    1.6    3.3
C    -4.0    2.2    4.3
H    -2.1    1.8    3.3
H    -5.0    1.8    4.2
H    -4.0    3.3    4.1
H    -3.6    2.1    5.3
