          35
 sphere cut out from bulk 
C    -5.6    2.5    1.7
C    -4.1    2.3    2.0
O    -3.3    3.1    1.5
H    -6.2    1.7    2.2
H    -5.8    2.4    0.6
H    -5.9    3.5    2.0
N    -3.8    1.3    2.8
C    -2.4    1.0    3.2
C    -2.4   -0.5    3.4
O    -3.3   -1.1    4.0
H    -4.5    0.6    3.2
H    -1.8    1.3    2.3
C    -2.0    1.8    4.4
C    -0.5    1.7    4.8
C     0.4    2.3    3.8
N     1.8    2.2    4.2
C     2.9    2.5    3.4
N     2.7    3.6    2.5
N     4.0    1.9    3.6
H    -2.6    1.4    5.3
H    -2.3    2.8    4.2
H    -0.2    0.7    5.0
H    -0.3    2.2    5.7
H     0.1    3.3    3.6
H     0.3    1.7    2.8
H     2.0    1.4    4.8
H     1.7    3.8    2.3
H     3.3    3.6    1.7
H     4.8    2.2    3.0
N    -1.2   -1.1    3.1
C    -0.9   -2.5    3.3
H    -0.5   -0.6    2.6
H    -1.7   -2.9    3.9
H     0.0   -2.6    3.9
H    -0.8   -3.1    2.4
