          35
 sphere cut out from bulk 
C    -0.7   -1.1    0.3
C    -0.6   -0.5    1.7
O     0.5   -0.1    2.1
H    -0.3   -0.4   -0.5
H    -1.7   -1.4   -0.0
H    -0.0   -2.0    0.2
N    -1.8   -0.5    2.4
C    -1.9   -0.1    3.8
C    -1.9    1.4    4.0
O    -2.8    1.9    4.6
H    -2.6   -0.9    1.9
H    -3.0   -0.4    4.0
C    -1.0   -0.8    4.8
C    -1.2   -2.3    4.9
C    -0.1   -3.2    4.4
N    -0.1   -3.4    2.9
C     1.0   -3.5    2.1
N     2.0   -2.7    2.4
N     1.1   -4.4    1.1
H    -1.2   -0.3    5.7
H     0.0   -0.6    4.5
H    -2.1   -2.7    4.5
H    -1.2   -2.6    6.0
H    -0.1   -4.2    4.9
H     0.9   -2.8    4.6
H    -0.9   -4.0    2.6
H     2.8   -2.8    1.7
H     1.8   -1.7    2.5
H     0.3   -5.0    1.1
N    -0.8    2.1    3.5
C    -0.7    3.5    3.6
H    -0.1    1.5    3.0
H     0.2    3.7    4.2
H    -1.5    3.9    4.2
H    -0.5    4.0    2.7
