          35
 sphere cut out from bulk 
C    -0.2   -0.1   -0.1
C    -0.2   -0.2    1.4
O     0.8   -0.2    2.1
H     0.4   -0.9   -0.5
H     0.4    0.8   -0.4
H    -1.2   -0.1   -0.6
N    -1.5   -0.2    1.9
C    -1.8   -0.1    3.3
C    -2.9   -1.1    3.7
O    -4.0   -0.8    4.0
H    -2.3   -0.1    1.3
H    -0.8   -0.5    3.8
C    -2.0    1.3    3.8
C    -2.3    1.5    5.3
C    -1.4    0.7    6.3
N    -2.0   -0.6    6.5
C    -1.3   -1.7    6.7
N    -2.1   -2.9    6.9
N     0.0   -1.9    6.8
H    -2.9    1.7    3.3
H    -1.2    1.9    3.5
H    -3.4    1.3    5.5
H    -2.1    2.6    5.5
H    -1.3    1.3    7.2
H    -0.4    0.6    5.9
H    -3.0   -0.7    6.3
H    -1.5   -3.6    7.2
H    -2.9   -2.7    7.5
H     0.5   -1.0    6.5
N    -2.6   -2.5    3.6
C    -1.3   -3.0    3.4
H    -3.3   -3.0    3.9
H    -1.4   -4.1    3.4
H    -0.6   -2.8    4.3
H    -0.8   -2.7    2.5
