          35
 sphere cut out from bulk 
C     1.0    0.4    0.1
C     0.7    0.1    1.5
O     1.4   -0.6    2.2
H     2.0    0.9    0.1
H     0.3    1.1   -0.4
H     1.1   -0.5   -0.5
N    -0.5    0.6    2.0
C    -1.1    0.2    3.3
C    -2.1   -0.9    3.1
O    -3.2   -0.7    2.5
H    -1.1    1.0    1.3
H    -0.2   -0.1    3.9
C    -1.7    1.4    3.9
C    -2.3    1.1    5.3
C    -2.8    2.4    6.0
N    -1.8    3.4    6.3
C    -1.7    4.6    5.7
N    -0.8    5.5    6.2
N    -2.5    4.8    4.7
H    -2.6    1.8    3.3
H    -1.0    2.2    4.0
H    -1.5    0.7    5.9
H    -3.1    0.4    5.3
H    -3.3    2.1    7.0
H    -3.6    2.9    5.4
H    -1.4    3.4    7.3
H    -0.6    6.3    5.6
H     0.1    5.0    6.5
H    -2.3    5.8    4.2
N    -1.8   -2.1    3.6
C    -0.6   -2.5    4.3
H    -2.5   -2.8    3.4
H    -0.6   -3.6    4.3
H    -0.6   -2.2    5.3
H     0.3   -2.2    3.8
