          35
 sphere cut out from bulk 
C     0.7   -0.6    0.2
C     0.5   -0.5    1.7
O     1.4   -0.5    2.5
H     1.4    0.3   -0.1
H    -0.2   -0.6   -0.3
H     1.3   -1.5    0.1
N    -0.8   -0.3    2.1
C    -1.2   -0.3    3.5
C    -2.5   -1.1    3.6
O    -3.2   -1.2    2.6
H    -1.6   -0.4    1.5
H    -0.4   -0.8    4.1
C    -1.5    1.1    4.1
C    -0.2    2.0    4.4
C     0.4    2.7    3.2
N     1.5    3.6    3.5
C     2.7    3.1    3.9
N     3.1    1.9    3.4
N     3.4    3.9    4.7
H    -2.1    1.0    5.0
H    -2.2    1.6    3.4
H     0.5    1.3    4.9
H    -0.5    2.7    5.2
H    -0.4    3.4    2.7
H     0.7    2.0    2.4
H     1.3    4.4    4.0
H     2.5    1.2    3.1
H     4.0    1.5    3.8
H     4.4    3.5    4.9
N    -2.8   -1.8    4.8
C    -2.0   -1.8    6.0
H    -3.6   -2.2    4.8
H    -0.9   -2.1    5.8
H    -2.4   -2.5    6.7
H    -1.9   -0.8    6.5
