          35
 sphere cut out from bulk 
C     0.2   -0.7    1.4
C    -0.4   -1.0    2.8
O     0.3   -1.3    3.8
H     0.8   -1.6    1.1
H     0.9    0.1    1.5
H    -0.5   -0.5    0.7
N    -1.7   -0.9    2.9
C    -2.4   -1.1    4.2
C    -2.7   -2.7    4.4
O    -3.8   -3.2    4.2
H    -2.3   -0.8    2.1
H    -1.8   -0.8    5.0
C    -3.7   -0.3    4.2
C    -3.5    1.2    4.2
C    -4.8    1.9    4.3
N    -5.5    1.7    5.6
C    -5.2    2.4    6.8
N    -6.0    2.0    7.8
N    -4.3    3.3    6.9
H    -4.3   -0.7    5.1
H    -4.4   -0.7    3.3
H    -3.0    1.5    3.3
H    -2.9    1.4    5.0
H    -5.5    1.6    3.5
H    -4.7    3.0    4.2
H    -6.5    1.4    5.5
H    -6.2    1.0    7.9
H    -5.7    2.5    8.7
H    -3.8    3.5    6.1
N    -1.6   -3.4    4.7
C    -1.6   -4.8    4.8
H    -0.7   -2.8    4.7
H    -1.1   -5.3    4.0
H    -2.6   -5.2    4.9
H    -1.1   -5.1    5.8
