          35
 sphere cut out from bulk 
C    -0.7   -1.1    0.5
C    -0.5   -0.5    1.8
O     0.5   -0.7    2.5
H    -0.1   -0.6   -0.3
H    -1.7   -1.2    0.1
H    -0.2   -2.1    0.6
N    -1.5    0.4    2.3
C    -2.7    0.9    1.8
C    -3.6   -0.2    1.1
O    -4.1   -0.1    0.0
H    -1.2    0.8    3.2
H    -3.3    1.1    2.6
C    -2.6    2.2    0.9
C    -1.5    2.3   -0.1
C    -1.9    2.3   -1.6
N    -2.4    1.0   -2.0
C    -1.6    0.0   -2.6
N    -2.2   -1.1   -2.9
N    -0.3    0.3   -2.8
H    -2.5    3.0    1.7
H    -3.6    2.4    0.5
H    -0.7    1.6    0.1
H    -1.0    3.3    0.0
H    -1.1    2.5   -2.2
H    -2.7    3.0   -1.8
H    -3.2    0.6   -1.5
H    -1.6   -2.0   -2.9
H    -3.1   -1.3   -2.5
H     0.1   -0.5   -3.3
N    -3.9   -1.3    1.9
C    -3.5   -1.6    3.2
H    -4.5   -2.0    1.4
H    -4.2   -2.4    3.6
H    -3.5   -0.8    3.9
H    -2.5   -2.0    3.3
