          35
 sphere cut out from bulk 
C    -1.8   -1.5    0.7
C    -1.0   -0.7    1.7
O     0.2   -0.4    1.5
H    -1.3   -2.5    0.6
H    -1.7   -1.1   -0.3
H    -2.8   -1.7    0.9
N    -1.8   -0.2    2.7
C    -1.4    0.6    3.9
C    -1.8    2.1    3.7
O    -2.7    2.5    4.5
H    -2.7   -0.4    2.7
H    -2.0    0.3    4.7
C     0.1    0.4    4.4
C     0.3    0.7    5.8
C     0.1    2.1    6.3
N     0.7    3.1    5.5
C     0.3    4.4    5.3
N    -1.0    4.7    5.7
N     1.1    5.4    4.9
H     0.8    0.9    3.7
H     0.3   -0.7    4.2
H     1.4    0.4    6.1
H    -0.2    0.0    6.5
H     0.4    2.2    7.4
H    -1.0    2.3    6.3
H     1.7    3.0    5.3
H    -1.2    5.7    5.5
H    -1.7    4.0    5.5
H     2.0    5.1    4.7
N    -1.3    2.9    2.8
C    -0.1    2.7    1.9
H    -1.7    3.8    2.8
H     0.7    3.3    2.4
H    -0.3    3.2    1.0
H     0.1    1.7    1.8
