          35
 sphere cut out from bulk 
C     1.1   -0.7    1.2
C     0.4    0.5    1.9
O     1.0    1.5    2.0
H     1.8   -1.2    1.9
H     1.7   -0.3    0.4
H     0.4   -1.5    0.8
N    -0.9    0.3    2.3
C    -1.8   -0.8    2.4
C    -1.1   -2.1    2.9
O    -0.2   -2.0    3.8
H    -1.2    1.2    2.8
H    -2.4   -0.6    3.3
C    -2.8   -0.9    1.2
C    -2.2   -1.2   -0.2
C    -1.8    0.1   -1.0
N    -3.0    0.9   -1.2
C    -2.8    2.3   -1.6
N    -4.0    2.9   -1.9
N    -1.6    2.8   -1.6
H    -3.4    0.0    1.2
H    -3.5   -1.7    1.4
H    -3.0   -1.7   -0.8
H    -1.4   -1.8   -0.2
H    -1.3   -0.2   -1.9
H    -1.1    0.7   -0.4
H    -3.8    0.5   -1.8
H    -4.0    3.9   -2.1
H    -4.8    2.6   -1.4
H    -1.7    3.8   -1.8
N    -1.5   -3.2    2.2
C    -0.9   -4.5    2.6
H    -2.1   -3.2    1.5
H    -0.2   -4.4    3.5
H    -0.4   -5.0    1.8
H    -1.8   -5.2    3.0
