          35
 sphere cut out from bulk 
C    -1.0   -0.1   -1.1
C    -0.8    0.6    0.2
O     0.3    0.9    0.7
H    -0.0   -0.1   -1.6
H    -1.7    0.5   -1.8
H    -1.4   -1.1   -1.0
N    -2.0    0.9    0.9
C    -3.4    0.6    0.6
C    -4.0    1.5   -0.5
O    -4.9    1.1   -1.2
H    -1.8    1.3    1.9
H    -3.4   -0.4    0.2
C    -4.2    0.6    1.9
C    -5.7    0.3    1.7
C    -6.0   -1.1    1.2
N    -7.4   -1.4    1.0
C    -8.2   -1.0   -0.0
N    -7.5   -0.6   -1.2
N    -9.4   -1.0    0.1
H    -4.1    1.6    2.3
H    -3.7   -0.1    2.6
H    -6.2    1.0    1.1
H    -6.2    0.4    2.7
H    -5.6   -1.9    1.9
H    -5.5   -1.3    0.3
H    -7.9   -1.6    1.9
H    -8.1   -0.1   -1.8
H    -6.5   -0.2   -1.1
H    -9.9   -0.7   -0.7
N    -3.4    2.7   -0.6
C    -3.9    3.7   -1.6
H    -2.6    2.9   -0.1
H    -3.1    3.9   -2.3
H    -4.2    4.6   -1.1
H    -4.8    3.3   -2.1
