          35
 sphere cut out from bulk 
C    -0.4    0.0   -0.0
C    -0.2   -0.5    1.4
O     0.6   -1.4    1.7
H    -0.9    1.0   -0.1
H    -0.9   -0.7   -0.6
H     0.6    0.1   -0.5
N    -1.0    0.2    2.3
C    -1.1   -0.2    3.7
C     0.2   -0.5    4.5
O     0.3   -1.4    5.3
H    -1.6    0.8    2.0
H    -1.6    0.6    4.2
C    -2.1   -1.4    3.9
C    -1.7   -2.8    3.4
C    -2.2   -3.9    4.3
N    -1.6   -5.2    4.1
C    -0.3   -5.5    4.6
N     0.2   -4.6    5.5
N     0.4   -6.6    4.3
H    -3.1   -1.1    3.5
H    -2.3   -1.5    5.0
H    -0.6   -2.8    3.4
H    -2.0   -2.9    2.4
H    -3.3   -4.1    4.1
H    -2.1   -3.6    5.4
H    -1.8   -5.7    3.3
H     1.1   -4.8    5.8
H     0.1   -3.6    5.4
H    -0.2   -7.2    3.7
N     1.2    0.4    4.2
C     2.5    0.2    4.7
H     1.1    0.9    3.4
H     3.1   -0.5    4.1
H     2.5   -0.2    5.7
H     3.0    1.1    4.8
