          35
 sphere cut out from bulk 
C    -0.6   -1.2   -0.3
C    -0.4   -0.8    1.1
O     0.7   -0.7    1.7
H    -0.1   -2.2   -0.4
H     0.0   -0.5   -0.9
H    -1.6   -1.2   -0.7
N    -1.6   -0.6    1.8
C    -1.8   -0.2    3.2
C    -2.0    1.4    3.2
O    -3.2    1.8    3.0
H    -2.5   -0.7    1.2
H    -2.9   -0.5    3.4
C    -0.9   -0.8    4.3
C    -1.2   -2.2    4.6
C    -0.5   -3.2    3.6
N     0.9   -3.1    3.4
C     1.8   -3.5    4.4
N     3.1   -3.0    4.1
N     1.4   -4.1    5.4
H    -1.2   -0.2    5.2
H     0.1   -0.6    4.1
H    -2.3   -2.5    4.7
H    -0.8   -2.5    5.6
H    -1.0   -3.2    2.6
H    -0.7   -4.3    4.0
H     1.1   -2.2    2.8
H     3.8   -3.5    4.6
H     3.3   -2.9    3.1
H     2.2   -4.4    6.0
N    -1.0    2.2    3.3
C     0.4    2.0    3.5
H    -1.3    3.2    3.3
H     0.7    1.9    4.6
H     1.0    2.9    3.1
H     0.8    1.1    3.0
