          35
 sphere cut out from bulk 
C    -0.4   -0.3   -0.1
C    -0.2   -0.3    1.4
O     0.9   -0.4    1.9
H     0.1   -1.2   -0.5
H     0.2    0.5   -0.5
H    -1.4   -0.2   -0.5
N    -1.4   -0.2    2.1
C    -1.4   -0.1    3.5
C    -2.9   -0.5    3.9
O    -3.8   -0.1    3.2
H    -2.3   -0.0    1.6
H    -0.7   -0.8    3.9
C    -1.1    1.3    4.0
C    -0.8    1.5    5.5
C     0.6    1.1    5.9
N     0.8   -0.3    6.1
C     1.9   -1.1    5.7
N     2.4   -0.7    4.5
N     2.4   -2.0    6.3
H    -2.0    2.0    3.7
H    -0.3    1.7    3.4
H    -1.5    1.1    6.1
H    -0.9    2.6    5.7
H     0.9    1.6    6.8
H     1.3    1.4    5.1
H     0.5   -0.6    7.1
H     3.1   -1.3    4.2
H     1.7   -0.5    3.7
H     2.0   -2.1    7.3
N    -3.1   -1.2    5.0
C    -2.2   -2.0    5.8
H    -4.1   -1.4    5.2
H    -2.5   -2.0    6.8
H    -1.2   -1.6    5.7
H    -2.1   -3.1    5.4
