          35
 sphere cut out from bulk 
C     1.1   -4.6    2.1
C     0.8   -3.3    2.8
O     1.8   -2.6    3.1
H     1.8   -4.4    1.2
H     0.2   -5.1    1.7
H     1.6   -5.3    2.8
N    -0.5   -3.1    3.1
C    -0.9   -1.9    3.7
C    -0.8   -2.0    5.3
O    -1.8   -1.9    6.0
H    -1.1   -3.9    3.0
H    -0.1   -1.1    3.5
C    -2.2   -1.4    3.3
C    -3.3   -2.4    2.9
C    -3.7   -3.4    4.0
N    -4.3   -4.6    3.5
C    -3.6   -5.6    2.9
N    -4.3   -6.7    2.5
N    -2.3   -5.5    2.8
H    -2.1   -0.7    2.4
H    -2.6   -0.7    4.1
H    -2.9   -3.0    2.0
H    -4.2   -1.9    2.5
H    -4.4   -2.9    4.7
H    -2.8   -3.7    4.6
H    -5.3   -4.5    3.2
H    -3.8   -7.5    2.1
H    -5.1   -6.9    3.0
H    -1.9   -6.4    2.5
N     0.5   -2.1    5.7
C     0.8   -2.3    7.1
H     1.2   -2.2    5.0
H     1.2   -3.3    7.3
H    -0.1   -2.2    7.7
H     1.6   -1.6    7.4
