          35
 sphere cut out from bulk 
C     2.8    0.7    0.1
C     1.9   -0.1    1.0
O     2.2   -1.2    1.4
H     3.8    0.8    0.5
H     2.4    1.7   -0.1
H     2.9    0.2   -0.9
N     0.7    0.5    1.4
C    -0.2   -0.1    2.3
C    -1.7   -0.2    1.6
O    -2.3   -1.3    1.7
H     0.6    1.5    1.1
H     0.1   -1.2    2.3
C    -0.3    0.5    3.7
C     1.0    0.4    4.5
C     1.3   -1.0    5.1
N     1.5   -2.0    4.2
C     1.6   -3.4    4.5
N     2.0   -4.2    3.5
N     1.5   -3.9    5.7
H    -1.1   -0.1    4.2
H    -0.6    1.5    3.6
H     1.0    1.1    5.3
H     1.9    0.7    3.9
H     0.4   -1.3    5.8
H     2.2   -0.9    5.8
H     2.0   -1.8    3.3
H     1.9   -5.2    3.7
H     1.7   -3.9    2.5
H     1.3   -3.2    6.4
N    -2.3    0.9    1.1
C    -1.8    2.2    1.0
H    -3.2    0.7    0.7
H    -1.2    2.6    1.9
H    -2.6    2.9    0.9
H    -1.1    2.4    0.1
