          35
 sphere cut out from bulk 
C     1.2   -0.2    0.3
C     0.7    0.2    1.7
O     1.4    0.9    2.5
H     0.4   -0.7   -0.2
H     2.0   -0.9    0.4
H     1.5    0.7   -0.2
N    -0.5   -0.2    2.1
C    -1.2    0.0    3.4
C    -0.8    1.4    4.1
O    -0.4    1.4    5.2
H    -1.0   -0.8    1.4
H    -2.2    0.1    3.2
C    -1.0   -1.2    4.3
C     0.5   -1.6    4.6
C     0.6   -2.8    5.5
N     0.2   -4.1    4.8
C    -1.0   -4.7    5.0
N    -1.2   -5.8    4.1
N    -1.9   -4.2    5.8
H    -1.5   -2.0    3.8
H    -1.5   -1.0    5.2
H     0.9   -0.7    5.2
H     1.0   -1.7    3.7
H    -0.1   -2.8    6.4
H     1.6   -2.9    5.8
H     0.7   -4.3    3.9
H    -2.0   -6.3    4.4
H    -0.4   -6.4    4.1
H    -2.7   -4.8    5.9
N    -1.1    2.5    3.4
C    -1.5    2.7    2.0
H    -0.8    3.3    3.9
H    -1.9    3.7    2.0
H    -2.3    2.0    1.8
H    -0.7    2.7    1.3
