          35
 sphere cut out from bulk 
C    -1.1   -2.0    1.0
C    -1.7   -1.1    2.0
O    -1.3   -1.0    3.1
H    -1.5   -3.0    1.1
H     0.0   -2.1    1.2
H    -1.2   -1.7   -0.1
N    -2.8   -0.3    1.6
C    -3.4    0.0    0.3
C    -3.5   -1.2   -0.6
O    -3.2   -1.2   -1.8
H    -3.1    0.3    2.4
H    -4.4    0.3    0.5
C    -2.8    1.2   -0.4
C    -1.2    1.3   -0.6
C    -0.7    0.6   -1.8
N    -1.4    0.7   -3.1
C    -1.4    1.9   -3.8
N    -2.3    1.9   -4.8
N    -0.6    2.9   -3.7
H    -3.1    2.1    0.2
H    -3.3    1.4   -1.4
H    -0.7    1.0    0.3
H    -1.0    2.4   -0.8
H    -0.6   -0.5   -1.6
H     0.4    0.9   -2.0
H    -2.2    0.1   -3.1
H    -2.2    2.6   -5.5
H    -2.4    1.0   -5.3
H    -0.0    2.9   -2.8
N    -4.2   -2.3   -0.1
C    -4.8   -2.5    1.2
H    -4.3   -3.0   -0.7
H    -5.3   -1.5    1.6
H    -4.1   -2.7    2.0
H    -5.6   -3.2    1.2
