          35
 sphere cut out from bulk 
C     0.7   -0.5    0.0
C     0.0    0.6    0.8
O     0.3    1.8    0.6
H     1.8   -0.4    0.2
H     0.5   -0.4   -1.0
H     0.4   -1.5    0.3
N    -0.9    0.2    1.7
C    -1.6    1.1    2.6
C    -1.2    1.1    4.1
O    -1.1    2.2    4.7
H    -1.1   -0.8    1.8
H    -1.3    2.1    2.2
C    -3.1    1.0    2.4
C    -3.7    1.1    1.0
C    -3.2    2.3    0.1
N    -3.3    3.5    0.8
C    -2.5    4.7    0.5
N    -1.3    4.4    0.0
N    -3.0    5.9    0.7
H    -3.6    1.9    3.0
H    -3.5    0.1    2.9
H    -4.8    1.1    1.0
H    -3.4    0.2    0.5
H    -3.7    2.2   -0.8
H    -2.1    2.1   -0.1
H    -4.3    3.8    1.0
H    -0.8    3.6    0.4
H    -0.7    5.3    0.0
H    -3.9    5.9    0.9
N    -1.1   -0.1    4.8
C    -1.2   -1.4    4.3
H    -0.8    0.1    5.7
H    -1.4   -2.0    5.2
H    -0.4   -1.8    3.8
H    -2.1   -1.5    3.7
