          35
 sphere cut out from bulk 
C    -0.1   -0.4    0.3
C    -0.8   -0.8    1.6
O    -1.1   -1.9    1.8
H     0.9   -0.9    0.3
H     0.1    0.7    0.1
H    -0.6   -0.8   -0.5
N    -0.9    0.2    2.5
C    -1.5    0.1    3.8
C    -2.7    1.0    4.0
O    -2.7    1.8    5.0
H    -0.6    1.2    2.2
H    -1.9   -1.0    3.8
C    -0.5    0.1    4.9
C     0.7    1.1    4.7
C     0.3    2.6    4.6
N     1.4    3.4    4.1
C     1.6    3.7    2.8
N     1.2    2.7    1.9
N     2.0    4.8    2.3
H    -0.1   -0.9    5.1
H    -1.0    0.4    5.9
H     1.3    0.8    3.9
H     1.4    1.0    5.6
H    -0.0    3.0    5.5
H    -0.5    2.7    3.9
H     1.6    4.2    4.7
H     1.5    3.0    0.9
H     1.7    1.8    2.1
H     2.1    5.6    3.0
N    -3.8    0.9    3.2
C    -4.0   -0.0    2.1
H    -4.5    1.6    3.4
H    -5.0   -0.2    2.0
H    -3.5   -1.0    2.2
H    -3.6    0.4    1.1
