          35
 sphere cut out from bulk 
C    -0.8    0.0   -0.7
C    -0.4   -0.2    0.7
O     0.7   -0.7    1.0
H    -0.9   -0.9   -1.2
H     0.0    0.6   -1.2
H    -1.7    0.6   -0.8
N    -1.3    0.1    1.7
C    -1.2   -0.2    3.1
C    -2.5    0.2    3.9
O    -2.8   -0.5    4.8
H    -2.2    0.3    1.3
H    -1.2   -1.3    3.2
C     0.1    0.3    3.8
C     0.4    1.8    3.7
C     1.8    2.1    4.3
N     1.9    1.9    5.7
C     2.5    0.8    6.3
N     2.4    0.8    7.7
N     3.1   -0.2    5.7
H     0.9   -0.3    3.3
H     0.0   -0.1    4.8
H    -0.4    2.4    4.2
H     0.4    2.1    2.7
H     2.0    3.2    4.1
H     2.6    1.6    3.8
H     1.2    2.4    6.3
H     3.0   -0.0    8.1
H     2.7    1.6    8.1
H     3.0   -0.2    4.7
N    -3.2    1.3    3.5
C    -2.8    2.5    2.8
H    -4.0    1.4    4.1
H    -3.6    2.9    2.2
H    -1.9    2.4    2.2
H    -2.6    3.4    3.5
