          35
 sphere cut out from bulk 
C     1.6   -0.1    0.2
C     0.8    0.3    1.5
O     1.4    0.7    2.5
H     2.2    0.7   -0.1
H     1.0   -0.5   -0.6
H     2.3   -0.9    0.6
N    -0.5    0.3    1.3
C    -1.4    0.8    2.4
C    -2.5   -0.3    2.9
O    -2.7   -0.4    4.0
H    -0.9    0.0    0.4
H    -0.8    0.9    3.3
C    -2.1    2.1    2.1
C    -1.1    3.3    1.9
C    -0.4    3.7    3.2
N     0.5    4.8    3.1
C     1.8    4.8    2.6
N     2.4    3.6    2.7
N     2.4    5.8    2.1
H    -2.8    2.3    2.9
H    -2.7    2.0    1.1
H    -1.6    4.1    1.5
H    -0.3    3.0    1.2
H     0.1    2.9    3.7
H    -1.2    4.0    3.9
H     0.0    5.7    2.8
H     3.3    3.5    2.3
H     1.9    2.7    2.7
H     1.9    6.6    2.1
N    -3.2   -1.0    1.9
C    -3.2   -0.9    0.5
H    -3.9   -1.6    2.4
H    -4.2   -1.3    0.1
H    -2.4   -1.6    0.0
H    -3.1    0.1    0.1
