          35
 sphere cut out from bulk 
C     0.3   -1.6    2.0
C     0.8   -0.5    3.0
O     1.8   -0.7    3.7
H    -0.7   -1.9    2.3
H     1.0   -2.5    2.2
H     0.4   -1.3    1.0
N     0.2    0.7    2.9
C    -1.2    0.9    2.4
C    -1.3    0.8    0.8
O    -2.3    0.3    0.3
H     0.5    1.4    3.6
H    -1.8    0.0    2.7
C    -1.8    2.2    2.9
C    -1.8    2.4    4.4
C    -2.4    1.2    5.3
N    -1.3    0.2    5.5
C    -0.4    0.4    6.5
N     0.5   -0.7    6.6
N    -0.4    1.4    7.2
H    -2.9    2.2    2.5
H    -1.3    3.0    2.5
H    -2.5    3.2    4.6
H    -0.8    2.6    4.8
H    -3.2    0.7    4.8
H    -2.7    1.6    6.2
H    -1.6   -0.8    5.3
H     1.3   -0.6    7.2
H     0.9   -0.9    5.7
H     0.4    1.5    7.8
N    -0.4    1.5    0.1
C     0.8    2.2    0.4
H    -0.6    1.4   -0.9
H     0.6    3.0    1.2
H     1.1    2.8   -0.5
H     1.6    1.6    0.7
