          35
 sphere cut out from bulk 
C    -0.7    0.9    1.6
C    -2.1    0.6    1.9
O    -3.0    0.5    1.1
H    -0.1   -0.0    1.4
H    -0.2    1.5    2.3
H    -0.7    1.4    0.6
N    -2.5    0.4    3.2
C    -1.6    0.1    4.4
C    -1.0    1.5    4.8
O    -1.8    2.4    5.1
H    -3.5    0.2    3.4
H    -2.3   -0.0    5.2
C    -0.8   -1.1    4.3
C    -1.6   -2.4    4.2
C    -2.1   -2.8    2.8
N    -1.1   -2.7    1.7
C    -1.4   -2.9    0.4
N    -2.6   -2.3   -0.1
N    -0.6   -3.6   -0.3
H    -0.2   -1.2    5.2
H    -0.0   -1.1    3.5
H    -2.4   -2.5    4.9
H    -0.9   -3.3    4.5
H    -3.0   -2.1    2.5
H    -2.6   -3.8    2.8
H    -0.3   -3.3    1.9
H    -2.7   -2.3   -1.1
H    -2.8   -1.4    0.3
H    -0.8   -3.6   -1.3
N     0.4    1.7    5.0
C     1.5    0.9    4.6
H     0.6    2.6    5.3
H     2.4    1.5    4.7
H     1.5    0.5    3.6
H     1.7    0.1    5.3
