          35
 sphere cut out from bulk 
C    -5.6    0.0    2.5
C    -4.1   -0.2    2.2
O    -3.7   -1.2    1.6
H    -6.1    0.0    1.5
H    -5.8    0.9    3.0
H    -6.0   -0.8    3.0
N    -3.3    0.8    2.6
C    -1.8    0.8    2.4
C    -1.2   -0.1    3.5
O    -0.6    0.4    4.5
H    -3.7    1.6    3.2
H    -1.7    0.3    1.4
C    -1.3    2.2    2.3
C     0.2    2.3    1.9
C     1.2    2.6    3.0
N     0.9    3.8    3.7
C     0.8    4.0    5.1
N     0.1    3.0    5.8
N     1.2    5.1    5.6
H    -1.4    2.7    3.3
H    -1.9    2.7    1.6
H     0.3    3.1    1.2
H     0.5    1.4    1.4
H     2.2    2.6    2.6
H     1.1    1.8    3.8
H     1.3    4.7    3.4
H    -0.1    2.1    5.3
H     0.2    2.9    6.7
H     0.9    5.2    6.6
N    -1.3   -1.4    3.3
C    -0.8   -2.4    4.2
H    -1.9   -1.7    2.5
H    -1.7   -2.7    4.9
H    -0.0   -2.0    4.8
H    -0.5   -3.3    3.7
