          35
 sphere cut out from bulk 
C    -1.0   -3.7    0.9
C    -0.5   -2.5    1.6
O     0.6   -2.4    2.1
H    -0.2   -4.3    0.7
H    -1.6   -3.5    0.0
H    -1.7   -4.3    1.6
N    -1.4   -1.4    1.7
C    -2.7   -1.1    1.1
C    -3.7   -2.3    1.5
O    -4.3   -2.9    0.6
H    -0.9   -0.6    2.2
H    -3.1   -0.2    1.7
C    -2.7   -0.8   -0.4
C    -1.9    0.4   -0.7
C    -1.9    0.7   -2.2
N    -3.2    1.1   -2.7
C    -3.5    1.2   -4.0
N    -4.8    1.7   -4.3
N    -2.7    1.0   -5.0
H    -3.8   -0.7   -0.7
H    -2.4   -1.7   -0.9
H    -0.8    0.2   -0.4
H    -2.2    1.3   -0.2
H    -1.2    1.5   -2.4
H    -1.6   -0.1   -2.8
H    -3.7    1.7   -2.1
H    -5.0    1.7   -5.2
H    -5.5    1.2   -3.7
H    -1.8    0.8   -4.7
N    -3.9   -2.6    2.8
C    -3.3   -2.0    4.0
H    -4.5   -3.3    3.0
H    -2.2   -2.3    4.2
H    -3.9   -2.2    4.8
H    -3.2   -0.9    3.9
