          35
 sphere cut out from bulk 
C    -0.9   -0.8   -0.1
C    -0.6   -0.0    1.1
O     0.3    0.8    1.2
H    -1.0   -0.0   -1.0
H    -1.8   -1.4   -0.1
H    -0.0   -1.4   -0.4
N    -1.4   -0.4    2.2
C    -1.4   -0.0    3.6
C    -1.4    1.5    4.0
O    -1.8    1.8    5.1
H    -2.1   -1.1    1.9
H    -2.4   -0.3    4.0
C    -0.4   -0.8    4.4
C     1.1   -0.7    4.0
C     1.8    0.6    4.3
N     3.2    0.7    3.9
C     4.2    0.0    4.6
N     5.4    0.0    3.9
N     4.1   -0.5    5.8
H    -0.7   -1.9    4.4
H    -0.5   -0.5    5.5
H     1.2   -1.0    2.9
H     1.6   -1.5    4.5
H     1.7    0.8    5.4
H     1.3    1.4    3.8
H     3.3    0.7    2.9
H     6.2   -0.3    4.5
H     5.6    0.9    3.5
H     3.2   -0.5    6.1
N    -1.0    2.4    3.1
C    -0.9    3.8    3.4
H    -0.5    2.0    2.3
H    -0.9    4.4    2.5
H    -0.1    4.0    4.0
H    -1.8    4.1    4.0
