          35
 sphere cut out from bulk 
C    -0.5   -1.0   -0.6
C     0.2   -0.1    0.5
O     1.4    0.2    0.5
H     0.3   -1.1   -1.4
H    -1.4   -0.5   -1.0
H    -0.7   -1.9   -0.1
N    -0.6    0.4    1.5
C    -2.1    0.4    1.7
C    -2.6   -1.1    1.6
O    -2.1   -2.0    2.2
H    -0.1    1.0    2.1
H    -2.2    0.6    2.7
C    -2.8    1.5    0.8
C    -2.3    2.9    1.1
C    -2.8    3.6    2.3
N    -2.7    2.9    3.6
C    -1.5    2.6    4.2
N    -1.7    2.2    5.6
N    -0.4    2.8    3.6
H    -3.9    1.4    1.1
H    -2.7    1.2   -0.2
H    -2.5    3.5    0.2
H    -1.2    2.9    1.1
H    -3.8    3.9    2.2
H    -2.2    4.5    2.4
H    -3.5    3.0    4.2
H    -0.8    1.8    6.0
H    -2.5    1.6    5.7
H     0.4    2.5    4.2
N    -3.7   -1.3    0.7
C    -4.3   -2.6    0.5
H    -4.0   -0.5    0.1
H    -5.4   -2.5    0.6
H    -3.9   -3.2    1.3
H    -4.0   -3.0   -0.4
