          35
 sphere cut out from bulk 
C     0.8    0.8    0.4
C     0.3    0.0    1.6
O     1.0   -0.7    2.2
H     1.4    0.2   -0.2
H     1.3    1.7    0.7
H    -0.0    1.2   -0.3
N    -1.1    0.1    1.8
C    -1.7   -0.2    3.1
C    -1.3    0.8    4.2
O    -0.4    1.6    4.0
H    -1.6    0.8    1.3
H    -2.8   -0.1    2.9
C    -1.5   -1.7    3.5
C    -2.0   -2.7    2.5
C    -0.9   -3.4    1.6
N    -0.0   -4.2    2.3
C     1.3   -4.4    1.9
N     1.9   -3.4    1.3
N     2.0   -5.5    2.1
H    -2.0   -1.9    4.4
H    -0.4   -1.9    3.7
H    -2.8   -2.3    1.8
H    -2.5   -3.6    3.0
H    -0.4   -2.6    1.0
H    -1.4   -4.0    0.8
H    -0.4   -5.0    2.7
H     2.9   -3.5    1.2
H     1.7   -2.4    1.7
H     1.3   -6.2    2.5
N    -2.1    0.8    5.3
C    -3.3    0.0    5.6
H    -1.8    1.5    6.0
H    -4.0    0.7    6.3
H    -3.1   -0.9    6.2
H    -3.9   -0.2    4.7
