          35
 sphere cut out from bulk 
C     0.3   -0.2    0.2
C     0.0   -0.2    1.7
O     1.0   -0.2    2.5
H     0.9    0.6   -0.1
H    -0.7   -0.1   -0.4
H     0.8   -1.2   -0.1
N    -1.2   -0.0    2.1
C    -1.6    0.1    3.5
C    -1.8   -1.4    4.1
O    -2.8   -2.0    4.1
H    -2.0   -0.1    1.4
H    -0.8    0.6    4.0
C    -2.9    0.9    3.7
C    -3.1    1.5    5.1
C    -3.2    0.5    6.2
N    -3.4    1.2    7.5
C    -3.4    0.5    8.7
N    -3.7    1.3    9.8
N    -3.1   -0.8    8.9
H    -3.8    0.2    3.5
H    -2.9    1.7    3.0
H    -4.0    2.1    5.1
H    -2.2    2.1    5.3
H    -2.3   -0.1    6.3
H    -4.0   -0.2    6.0
H    -4.0    1.9    7.5
H    -3.6    0.8   10.7
H    -3.2    2.2    9.8
H    -3.0   -1.3    8.0
N    -0.6   -1.9    4.4
C    -0.4   -3.3    4.8
H     0.3   -1.4    4.1
H     0.3   -3.4    5.7
H    -0.0   -4.0    4.0
H    -1.4   -3.7    5.2
