          35
 sphere cut out from bulk 
C     0.1   -0.4   -0.4
C     0.1   -0.9    1.1
O     0.5   -2.0    1.4
H     1.1   -0.3   -0.7
H    -0.4    0.6   -0.5
H    -0.4   -1.1   -1.0
N    -0.5   -0.1    2.0
C    -0.6   -0.4    3.4
C    -1.9   -1.0    3.9
O    -1.8   -1.9    4.8
H    -0.8    0.8    1.7
H     0.2   -1.2    3.6
C    -0.2    0.8    4.2
C     1.3    1.2    4.1
C     1.7    2.6    4.7
N     1.5    2.7    6.2
C     0.2    3.0    6.8
N    -0.5    4.0    6.1
N    -0.1    2.4    7.8
H    -0.4    0.6    5.3
H    -0.8    1.7    4.0
H     1.9    0.4    4.5
H     1.6    1.3    3.0
H     1.1    3.4    4.2
H     2.7    2.8    4.5
H     1.9    1.9    6.7
H     0.1    4.8    5.7
H    -1.2    4.4    6.6
H    -0.9    2.8    8.2
N    -3.1   -0.6    3.5
C    -3.4    0.5    2.6
H    -3.9   -1.1    3.9
H    -4.5    0.8    2.7
H    -3.3    0.3    1.5
H    -2.8    1.4    2.8
