          35
 sphere cut out from bulk 
C    -0.2   -0.4    2.4
C    -0.6   -0.8    3.9
O     0.2   -1.3    4.6
H     0.9   -0.3    2.4
H    -0.7    0.5    2.1
H    -0.5   -1.2    1.7
N    -1.9   -0.4    4.3
C    -3.0   -0.3    3.4
C    -4.2    0.4    4.2
O    -5.3   -0.1    4.4
H    -2.0   -0.6    5.3
H    -2.8    0.4    2.6
C    -3.5   -1.6    2.8
C    -4.0   -2.8    3.6
C    -2.9   -3.6    4.3
N    -2.3   -3.1    5.5
C    -3.0   -2.5    6.5
N    -4.1   -3.2    7.0
N    -2.7   -1.3    6.9
H    -2.7   -1.9    2.1
H    -4.4   -1.3    2.1
H    -4.5   -3.5    3.0
H    -4.7   -2.4    4.4
H    -3.3   -4.6    4.6
H    -2.0   -3.9    3.6
H    -1.4   -2.6    5.4
H    -4.9   -2.6    7.3
H    -4.3   -4.1    6.5
H    -3.2   -1.0    7.7
N    -3.9    1.7    4.7
C    -2.6    2.5    4.7
H    -4.6    2.1    5.3
H    -1.9    2.1    5.4
H    -2.2    2.4    3.6
H    -2.9    3.5    4.8
