          35
 sphere cut out from bulk 
C    -0.0    0.4   -0.0
C    -0.0    0.0    1.5
O     1.0   -0.2    2.1
H    -1.0    0.1   -0.5
H     0.8   -0.2   -0.5
H     0.2    1.4   -0.1
N    -1.3   -0.1    2.0
C    -1.5   -0.0    3.5
C    -0.7    1.1    4.1
O    -0.6    2.2    3.6
H    -2.1    0.3    1.4
H    -2.5    0.3    3.6
C    -1.5   -1.4    4.1
C    -0.2   -2.3    3.9
C    -0.2   -3.5    4.8
N    -0.6   -3.4    6.2
C    -0.1   -2.4    7.1
N    -0.8   -2.1    8.2
N     1.1   -1.8    6.9
H    -2.4   -2.0    3.7
H    -1.8   -1.3    5.2
H     0.6   -1.7    4.1
H    -0.1   -2.6    2.9
H     0.8   -4.0    4.8
H    -0.9   -4.3    4.4
H    -1.6   -3.5    6.4
H    -0.3   -1.6    8.9
H    -1.2   -3.0    8.6
H     1.5   -2.0    6.0
N    -0.0    0.8    5.3
C     0.8    1.8    6.0
H     0.1   -0.1    5.7
H     1.6    2.2    5.3
H     1.2    1.3    6.8
H     0.2    2.7    6.3
