          35
 sphere cut out from bulk 
C    -1.3    2.1    2.3
C    -0.5    0.8    2.6
O     0.7    0.9    3.0
H    -1.4    2.1    1.2
H    -2.3    2.0    2.7
H    -0.8    3.0    2.6
N    -1.1   -0.4    2.5
C    -2.4   -0.8    1.9
C    -3.0   -1.9    2.8
O    -3.1   -3.0    2.3
H    -0.4   -1.1    2.8
H    -3.0    0.1    2.0
C    -2.3   -1.1    0.5
C    -1.2   -2.1    0.1
C     0.1   -1.5   -0.4
N    -0.0   -0.8   -1.6
C    -0.1    0.6   -1.7
N    -0.6    1.1   -2.9
N     0.3    1.5   -0.7
H    -2.1   -0.2   -0.1
H    -3.3   -1.5    0.2
H    -1.6   -2.8   -0.8
H    -1.0   -2.8    0.9
H     0.9   -2.4   -0.6
H     0.6   -0.9    0.3
H    -0.6   -1.2   -2.4
H    -0.4    2.1   -2.9
H    -0.3    0.7   -3.7
H     0.6    1.0    0.1
N    -3.3   -1.6    4.1
C    -3.2   -0.3    4.8
H    -3.7   -2.4    4.6
H    -3.8   -0.3    5.7
H    -3.6    0.5    4.1
H    -2.2   -0.0    5.0
