          35
 sphere cut out from bulk 
C     0.1    1.1    0.6
C    -0.9    0.1    1.1
O    -2.1    0.4    1.4
H     0.2    1.9    1.3
H    -0.4    1.5   -0.4
H     1.0    0.6    0.3
N    -0.5   -1.2    1.2
C    -1.3   -2.3    1.8
C    -0.4   -3.2    2.6
O     0.8   -3.4    2.3
H     0.5   -1.5    1.0
H    -2.0   -1.8    2.4
C    -2.0   -3.1    0.7
C    -3.2   -4.0    1.2
C    -4.5   -3.3    1.4
N    -4.5   -2.0    2.2
C    -4.0   -1.9    3.5
N    -3.7   -0.6    3.9
N    -3.9   -2.9    4.3
H    -1.3   -3.7    0.1
H    -2.4   -2.3   -0.0
H    -2.9   -4.5    2.1
H    -3.4   -4.8    0.4
H    -5.2   -4.0    1.9
H    -5.0   -3.0    0.5
H    -4.5   -1.2    1.6
H    -3.3   -0.6    4.8
H    -3.2   -0.1    3.1
H    -4.3   -3.8    3.9
N    -0.9   -3.6    3.8
C    -0.2   -4.5    4.7
H    -1.9   -3.3    4.0
H     0.1   -5.4    4.2
H    -0.9   -4.8    5.5
H     0.7   -4.0    5.1
