          35
 sphere cut out from bulk 
C    -1.8   -0.5    1.6
C    -0.6    0.4    2.0
O     0.5   -0.1    2.3
H    -1.5   -1.5    1.7
H    -2.2   -0.3    0.6
H    -2.7   -0.3    2.3
N    -0.8    1.8    2.0
C    -1.9    2.5    1.6
C    -1.5    3.7    0.6
O    -0.3    4.1    0.7
H     0.1    2.3    2.1
H    -2.6    1.9    1.0
C    -2.7    3.2    2.7
C    -3.4    2.2    3.6
C    -4.4    2.9    4.7
N    -5.5    3.6    4.0
C    -5.3    4.9    3.6
N    -4.7    5.8    4.5
N    -5.8    5.2    2.4
H    -3.4    3.9    2.3
H    -2.0    3.8    3.3
H    -2.7    1.6    4.2
H    -4.1    1.5    3.0
H    -3.8    3.6    5.3
H    -4.8    2.1    5.3
H    -6.0    3.1    3.4
H    -4.8    5.6    5.5
H    -4.7    6.8    4.2
H    -5.8    6.3    2.3
N    -2.4    4.2   -0.2
C    -3.8    3.9   -0.4
H    -2.0    5.0   -0.8
H    -4.4    4.3    0.4
H    -3.9    2.8   -0.4
H    -4.1    4.2   -1.4
