          35
 sphere cut out from bulk 
C    -0.7    0.4   -0.4
C    -0.5   -0.1    1.0
O     0.5   -0.8    1.3
H     0.1    1.0   -0.7
H    -1.6    1.0   -0.5
H    -0.7   -0.5   -1.1
N    -1.4    0.3    1.9
C    -1.5   -0.1    3.3
C    -0.1   -0.0    4.0
O     0.3   -1.0    4.7
H    -2.3    0.8    1.6
H    -2.1    0.6    3.8
C    -2.1   -1.6    3.5
C    -3.4   -1.8    2.7
C    -4.7   -1.2    3.4
N    -4.7    0.1    3.9
C    -4.5    1.3    3.1
N    -4.7    1.1    1.7
N    -4.2    2.5    3.5
H    -2.2   -1.8    4.5
H    -1.3   -2.2    3.1
H    -3.6   -2.9    2.6
H    -3.3   -1.4    1.7
H    -4.9   -1.8    4.3
H    -5.5   -1.4    2.8
H    -4.4    0.3    4.8
H    -4.8    2.0    1.2
H    -5.3    0.4    1.4
H    -4.0    2.5    4.5
N     0.5    1.2    4.0
C     0.1    2.4    3.4
H     1.4    1.2    4.5
H     0.6    3.3    3.9
H    -1.0    2.6    3.4
H     0.4    2.5    2.3
