          35
 sphere cut out from bulk 
C    -1.9    2.2    1.2
C    -0.6    1.5    1.8
O     0.5    2.0    1.8
H    -1.6    3.2    1.1
H    -2.7    2.1    1.9
H    -2.2    1.8    0.3
N    -0.7    0.2    2.2
C    -1.8   -0.8    1.9
C    -2.1   -1.7    3.1
O    -2.8   -2.7    2.9
H     0.2   -0.2    2.4
H    -2.7   -0.2    1.7
C    -1.5   -1.6    0.6
C    -0.1   -2.2    0.6
C     1.0   -1.4   -0.1
N     2.3   -1.7    0.2
C     2.9   -1.6    1.5
N     2.3   -0.5    2.2
N     3.7   -2.4    2.0
H    -1.6   -0.9   -0.3
H    -2.3   -2.4    0.6
H    -0.2   -3.2    0.1
H     0.2   -2.5    1.6
H     0.8   -0.3    0.1
H     0.9   -1.4   -1.2
H     2.7   -2.6   -0.1
H     2.8   -0.3    3.1
H     2.1    0.4    1.7
H     4.1   -2.1    2.9
N    -1.7   -1.3    4.3
C    -2.0   -2.0    5.5
H    -1.2   -0.4    4.3
H    -1.1   -2.2    6.0
H    -2.5   -2.9    5.2
H    -2.6   -1.4    6.2
