          35
 sphere cut out from bulk 
C     0.7    0.3    0.2
C     0.2    0.3    1.6
O     0.9    0.4    2.6
H     1.3    1.3    0.1
H    -0.0    0.3   -0.6
H     1.4   -0.5    0.1
N    -1.2    0.1    1.7
C    -1.9   -0.1    2.9
C    -2.9   -1.2    2.7
O    -3.4   -1.4    1.6
H    -1.7   -0.1    0.8
H    -1.1   -0.4    3.6
C    -2.6    1.2    3.4
C    -1.7    2.3    3.7
C    -2.5    3.6    4.2
N    -1.6    4.7    4.5
C    -2.0    5.9    5.0
N    -1.0    6.8    5.2
N    -3.2    6.2    5.4
H    -3.2    0.9    4.3
H    -3.4    1.5    2.6
H    -1.1    2.6    2.9
H    -1.0    2.0    4.5
H    -3.1    3.3    5.1
H    -3.2    3.9    3.4
H    -0.8    4.7    3.9
H    -1.4    7.6    5.7
H    -0.2    6.5    5.6
H    -3.9    5.4    5.1
N    -3.2   -1.9    3.8
C    -4.2   -3.0    3.8
H    -2.7   -1.7    4.6
H    -4.6   -3.1    2.7
H    -5.0   -2.8    4.5
H    -3.7   -4.0    4.0
