          35
 sphere cut out from bulk 
C     1.8    1.1    0.9
C     1.4    0.3    2.0
O     2.1    0.0    3.0
H     1.7    2.2    1.2
H     1.2    1.0   -0.0
H     2.9    0.9    0.7
N     0.1   -0.2    1.9
C    -0.7   -0.8    3.0
C    -1.1    0.4    4.0
O    -0.5    1.4    4.1
H    -0.5    0.2    1.2
H    -1.7   -1.1    2.6
C    -0.0   -2.0    3.6
C    -0.5   -2.7    4.9
C     0.2   -2.3    6.2
N    -0.1   -0.9    6.6
C     0.9    0.1    6.9
N     2.0    0.1    6.0
N     0.6    0.8    7.9
H     1.1   -1.8    3.7
H    -0.0   -2.8    2.8
H    -0.3   -3.8    4.8
H    -1.6   -2.6    5.0
H     1.3   -2.4    6.0
H     0.0   -3.0    7.0
H    -0.8   -0.9    7.3
H     2.6    0.8    6.2
H     1.8   -0.1    5.0
H     1.3    1.6    7.9
N    -2.3    0.2    4.7
C    -2.7    1.1    5.7
H    -2.7   -0.7    4.7
H    -2.9    2.1    5.3
H    -1.9    1.2    6.5
H    -3.6    0.8    6.2
