          35
 sphere cut out from bulk 
C    -0.9   -2.1    2.5
C    -0.9   -0.7    3.1
O    -0.9   -0.5    4.3
H    -0.1   -2.7    2.9
H    -0.9   -2.1    1.4
H    -1.9   -2.6    2.8
N    -0.8    0.3    2.2
C    -0.9    1.7    2.6
C    -1.9    2.5    1.7
O    -1.9    2.3    0.5
H    -0.9    0.2    1.2
H    -1.3    1.7    3.6
C     0.5    2.4    2.7
C     1.5    1.9    3.7
C     1.3    2.3    5.2
N    -0.1    2.2    5.7
C    -1.1    3.1    5.5
N    -0.6    4.5    5.5
N    -2.4    2.9    5.5
H     0.3    3.5    2.8
H     0.9    2.3    1.7
H     2.5    2.1    3.4
H     1.4    0.8    3.6
H     1.6    3.3    5.3
H     1.9    1.7    5.8
H    -0.5    1.2    5.5
H    -1.4    5.1    5.2
H     0.3    4.7    5.1
H    -2.6    1.9    5.6
N    -2.7    3.3    2.4
C    -3.7    4.1    1.7
H    -2.7    3.3    3.4
H    -3.6    5.2    2.0
H    -4.7    3.8    1.9
H    -3.5    4.1    0.6
