          35
 sphere cut out from bulk 
C     0.2   -0.7    0.1
C    -0.2    0.0    1.4
O     0.2    1.1    1.6
H    -0.3   -0.2   -0.8
H    -0.1   -1.8    0.0
H     1.3   -0.6   -0.1
N    -0.9   -0.6    2.3
C    -1.9   -1.8    2.3
C    -1.2   -3.1    1.9
O    -1.8   -4.0    1.3
H    -1.1    0.0    3.1
H    -2.1   -1.9    3.3
C    -3.2   -1.5    1.5
C    -3.1   -1.4    0.0
C    -4.4   -2.0   -0.7
N    -4.3   -3.5   -0.5
C    -5.4   -4.3   -0.8
N    -5.1   -5.6   -0.4
N    -6.5   -4.0   -1.2
H    -3.7   -0.7    2.0
H    -3.8   -2.4    1.8
H    -2.2   -1.9   -0.4
H    -3.1   -0.3   -0.3
H    -4.4   -1.7   -1.7
H    -5.3   -1.6   -0.2
H    -3.5   -3.8    0.1
H    -5.8   -6.2   -0.8
H    -4.2   -6.0   -0.6
H    -6.6   -3.0   -1.4
N     0.1   -3.2    2.3
C     0.9   -4.4    2.1
H     0.5   -2.4    2.8
H     1.7   -4.2    1.4
H     0.3   -5.2    1.6
H     1.3   -4.8    3.0
