          35
 sphere cut out from bulk 
C    -4.2    3.3    1.9
C    -2.9    2.6    2.2
O    -1.8    3.1    1.9
H    -4.2    3.5    0.8
H    -4.2    4.3    2.4
H    -5.1    2.7    2.2
N    -3.0    1.4    2.9
C    -1.8    0.7    3.3
C    -2.3   -0.8    3.3
O    -3.4   -1.1    3.6
H    -3.9    1.0    3.1
H    -1.1    0.8    2.5
C    -1.3    1.1    4.7
C     0.0    0.5    5.1
C     1.2    0.9    4.2
N     1.5    2.4    4.4
C     1.9    3.2    3.3
N     1.1    3.0    2.1
N     2.8    4.0    3.5
H    -2.1    0.8    5.4
H    -1.2    2.2    4.7
H    -0.0   -0.7    5.0
H     0.2    0.7    6.1
H     1.1    0.7    3.2
H     2.1    0.3    4.5
H     2.0    2.6    5.2
H     1.4    3.6    1.4
H     0.1    2.9    2.2
H     2.9    4.6    2.7
N    -1.4   -1.7    2.9
C    -1.6   -3.1    2.9
H    -0.5   -1.4    2.5
H    -2.6   -3.3    3.2
H    -0.9   -3.7    3.5
H    -1.5   -3.6    1.9
