          35
 sphere cut out from bulk 
C    -1.9    1.2   -0.2
C    -1.4    0.9    1.2
O    -0.6    1.6    1.9
H    -1.0    1.3   -0.8
H    -2.3    2.2   -0.1
H    -2.6    0.5   -0.6
N    -1.8   -0.4    1.7
C    -1.4   -0.8    3.0
C    -0.7   -2.2    3.0
O    -1.1   -3.2    3.5
H    -2.5   -0.8    1.1
H    -0.7   -0.1    3.4
C    -2.6   -0.9    3.9
C    -3.8   -1.9    3.5
C    -5.2   -1.2    3.5
N    -5.3    0.0    2.7
C    -5.1    0.1    1.3
N    -5.1    1.4    0.8
N    -4.9   -0.9    0.5
H    -3.0    0.1    4.0
H    -2.3   -1.2    4.9
H    -3.8   -2.7    4.1
H    -3.5   -2.3    2.5
H    -5.5   -1.0    4.5
H    -5.9   -1.9    3.1
H    -5.1    0.9    3.2
H    -5.2    1.4   -0.2
H    -5.8    2.0    1.3
H    -4.9   -1.8    1.0
N     0.5   -2.2    2.3
C     1.2   -1.2    1.6
H     0.9   -3.2    2.2
H     1.0   -0.2    2.0
H     1.0   -1.1    0.5
H     2.3   -1.4    1.6
