          35
 sphere cut out from bulk 
C     0.3   -3.1    4.5
C    -0.2   -2.0    3.5
O    -0.2   -2.1    2.3
H    -0.1   -4.0    4.2
H     0.2   -2.9    5.5
H     1.4   -3.1    4.2
N    -0.9   -1.0    4.2
C    -1.3    0.2    3.5
C    -0.7    1.4    4.3
O    -0.5    1.3    5.5
H    -0.7   -0.8    5.2
H    -0.9    0.2    2.5
C    -2.8    0.4    3.5
C    -3.6   -0.4    2.4
C    -3.6   -1.9    2.6
N    -4.0   -2.4    3.9
C    -5.3   -2.5    4.2
N    -5.5   -3.0    5.6
N    -6.4   -2.3    3.5
H    -3.0    1.5    3.3
H    -3.2    0.2    4.5
H    -3.2   -0.2    1.4
H    -4.6   -0.0    2.4
H    -2.6   -2.3    2.4
H    -4.2   -2.4    1.8
H    -3.3   -2.9    4.4
H    -4.9   -2.5    6.2
H    -6.5   -3.0    5.8
H    -6.1   -2.1    2.6
N    -0.4    2.5    3.6
C     0.1    3.8    4.1
H    -0.6    2.5    2.6
H     1.0    4.0    3.7
H     0.2    3.6    5.2
H    -0.7    4.6    4.0
