          35
 sphere cut out from bulk 
C     0.1    0.3    0.1
C     0.2   -0.1    1.5
O     1.3   -0.6    2.0
H     1.1    0.1   -0.4
H    -0.1    1.4   -0.0
H    -0.7   -0.2   -0.5
N    -0.9   -0.0    2.2
C    -2.2    0.5    1.9
C    -2.4    2.0    1.7
O    -3.3    2.4    1.0
H    -0.8   -0.4    3.2
H    -2.5    0.1    0.9
C    -3.3   -0.0    2.9
C    -3.1    0.4    4.4
C    -2.4   -0.7    5.3
N    -1.0   -0.8    5.0
C    -0.4   -2.1    4.9
N     0.9   -2.1    4.6
N    -1.1   -3.2    5.2
H    -3.3   -1.1    2.9
H    -4.2    0.3    2.6
H    -4.1    0.5    4.8
H    -2.6    1.4    4.5
H    -2.8   -1.6    5.2
H    -2.5   -0.3    6.4
H    -0.3   -0.2    5.4
H     1.4   -3.0    4.5
H     1.2   -1.5    3.8
H    -0.7   -4.0    5.0
N    -1.5    2.9    2.3
C    -0.3    2.7    3.1
H    -1.7    3.8    2.0
H    -0.1    3.7    3.5
H     0.6    2.4    2.6
H    -0.5    2.0    4.0
