          35
 sphere cut out from bulk 
C    -1.0    1.0   -0.7
C    -0.6    0.9    0.8
O     0.5    1.0    1.2
H    -0.1    1.1   -1.2
H    -1.6    1.9   -0.8
H    -1.6    0.1   -1.0
N    -1.6    0.7    1.7
C    -3.1    0.6    1.4
C    -3.8    1.9    1.0
O    -4.8    1.9    0.3
H    -1.3    0.6    2.7
H    -3.2    0.0    0.5
C    -3.9   -0.1    2.6
C    -4.0    0.7    3.9
C    -2.8    0.7    4.8
N    -3.1    1.2    6.2
C    -4.0    0.6    7.1
N    -3.9   -0.8    7.0
N    -4.8    1.1    7.9
H    -4.9   -0.2    2.1
H    -3.4   -1.0    2.7
H    -4.3    1.7    3.7
H    -4.9    0.2    4.4
H    -2.0    1.2    4.5
H    -2.5   -0.4    5.0
H    -3.2    2.2    6.2
H    -3.0   -1.2    7.0
H    -4.5   -1.2    7.8
H    -4.9    2.1    7.7
N    -3.3    3.2    1.4
C    -2.2    3.6    2.2
H    -3.9    3.9    1.0
H    -2.3    4.6    2.4
H    -2.2    3.1    3.2
H    -1.2    3.4    1.8
