          35
 sphere cut out from bulk 
C     0.0    0.8   -0.5
C     0.2    0.9    1.0
O     1.2    1.5    1.5
H    -1.0    0.7   -0.8
H     0.6    0.0   -0.9
H     0.4    1.8   -0.9
N    -0.6    0.3    1.9
C    -1.9   -0.4    1.6
C    -1.8   -1.4    0.5
O    -0.8   -2.1    0.2
H    -0.3    0.3    2.8
H    -2.0   -1.1    2.5
C    -3.1    0.5    1.7
C    -3.2    1.7    0.7
C    -4.4    2.6    0.9
N    -4.6    3.2    2.2
C    -5.4    2.7    3.1
N    -5.3    3.4    4.3
N    -6.1    1.6    2.9
H    -3.1    1.0    2.7
H    -4.0   -0.1    1.7
H    -3.1    1.3   -0.3
H    -2.3    2.3    0.8
H    -5.3    2.0    0.7
H    -4.4    3.4    0.1
H    -3.8    3.8    2.5
H    -6.0    3.1    5.0
H    -5.2    4.4    4.2
H    -6.7    1.4    3.7
N    -3.0   -1.5   -0.3
C    -3.1   -2.5   -1.4
H    -3.8   -1.0   -0.0
H    -3.4   -2.0   -2.3
H    -3.8   -3.3   -1.1
H    -2.1   -3.0   -1.5
