          35
 sphere cut out from bulk 
C    -0.4    0.5    0.1
C    -0.3    0.3    1.6
O     0.7    0.1    2.2
H     0.1   -0.3   -0.4
H     0.2    1.4   -0.1
H    -1.4    0.7   -0.2
N    -1.5    0.3    2.3
C    -1.8   -0.1    3.7
C    -3.3    0.1    4.0
O    -3.8   -0.6    4.8
H    -2.4    0.4    1.7
H    -1.6   -1.1    3.8
C    -0.9    0.6    4.8
C    -1.0    2.1    5.0
C    -0.4    3.0    3.9
N     1.0    2.7    3.5
C     2.0    3.2    4.3
N     3.3    2.7    4.0
N     1.8    4.1    5.3
H     0.1    0.3    4.6
H    -1.2    0.1    5.7
H    -0.5    2.4    5.9
H    -2.1    2.5    5.1
H    -0.4    4.1    4.2
H    -1.0    3.0    2.9
H     1.1    1.8    3.1
H     4.0    2.7    4.7
H     3.3    1.9    3.4
H     2.6    4.4    5.7
N    -3.9    1.2    3.4
C    -5.3    1.6    3.8
H    -3.3    1.9    3.0
H    -5.8    2.0    2.9
H    -5.3    2.2    4.6
H    -5.8    0.7    4.0
