          35
 sphere cut out from bulk 
C    -2.6   -0.5    1.2
C    -2.3   -0.3    2.6
O    -1.9    0.8    3.1
H    -2.7   -1.5    0.9
H    -1.9   -0.0    0.6
H    -3.6    0.0    1.0
N    -2.6   -1.3    3.5
C    -2.6   -1.2    4.9
C    -1.8   -2.3    5.7
O    -2.0   -2.6    6.8
H    -3.1   -2.1    3.1
H    -2.0   -0.3    5.1
C    -4.0   -1.1    5.5
C    -4.2   -0.1    6.6
C    -3.8    1.3    6.3
N    -3.9    1.8    5.0
C    -5.2    1.9    4.4
N    -5.0    2.1    3.0
N    -6.3    1.9    4.9
H    -4.4   -2.1    5.8
H    -4.7   -0.8    4.6
H    -3.7   -0.5    7.5
H    -5.3   -0.1    6.9
H    -2.7    1.4    6.6
H    -4.3    2.0    7.0
H    -3.1    1.6    4.4
H    -4.2    2.6    2.6
H    -5.9    2.4    2.6
H    -6.3    1.8    5.9
N    -0.8   -2.9    4.9
C     0.1   -3.9    5.5
H    -0.7   -2.6    4.0
H    -0.2   -4.1    6.5
H     1.1   -3.5    5.5
H     0.1   -4.8    4.9
