          35
 sphere cut out from bulk 
C    -0.0   -0.1   -0.2
C     0.0   -0.1    1.3
O     1.1   -0.2    1.9
H    -1.1    0.0   -0.6
H     0.4   -1.0   -0.6
H     0.6    0.8   -0.6
N    -1.1   -0.0    2.0
C    -1.3   -0.0    3.4
C    -2.8   -0.1    3.6
O    -3.6    0.1    2.7
H    -2.0    0.1    1.4
H    -0.8   -0.9    3.8
C    -0.7    1.2    4.1
C    -1.2    2.6    3.5
C    -0.1    3.6    3.5
N     1.0    3.3    2.7
C     2.2    2.9    3.2
N     3.0    2.1    2.4
N     2.6    3.4    4.4
H     0.4    1.2    3.9
H    -0.9    1.2    5.2
H    -2.1    2.9    4.1
H    -1.6    2.4    2.5
H     0.3    3.9    4.5
H    -0.5    4.6    3.1
H     0.9    2.9    1.7
H     3.9    1.9    2.8
H     2.5    1.3    2.0
H     3.5    3.0    4.7
N    -3.2   -0.5    4.9
C    -2.5   -0.8    6.1
H    -4.2   -0.5    5.0
H    -3.0   -1.6    6.7
H    -2.2    0.0    6.7
H    -1.5   -1.3    5.8
