          35
 sphere cut out from bulk 
C     0.1   -0.9    0.3
C     0.0   -1.0    1.9
O     0.9   -1.4    2.6
H     1.1   -1.4    0.1
H     0.1    0.1   -0.1
H    -0.6   -1.6   -0.1
N    -1.2   -0.5    2.4
C    -2.3    0.1    1.7
C    -3.0    1.1    2.7
O    -2.8    1.0    3.9
H    -1.2   -0.4    3.4
H    -2.0    0.7    0.8
C    -3.3   -1.0    1.2
C    -4.0   -1.8    2.3
C    -5.3   -1.2    2.8
N    -5.9   -2.0    3.9
C    -7.1   -1.7    4.4
N    -7.4   -2.5    5.5
N    -8.0   -0.9    3.9
H    -2.8   -1.6    0.5
H    -4.1   -0.5    0.6
H    -3.3   -1.9    3.1
H    -4.2   -2.8    1.9
H    -6.0   -1.2    2.0
H    -5.2   -0.2    3.1
H    -5.2   -2.3    4.6
H    -8.4   -2.4    5.8
H    -7.2   -3.5    5.4
H    -7.6   -0.3    3.2
N    -3.7    2.0    2.1
C    -4.5    3.0    2.9
H    -3.8    2.0    1.1
H    -4.4    4.0    2.5
H    -4.2    2.9    3.9
H    -5.6    2.7    2.8
