          35
 sphere cut out from bulk 
C    -0.4   -0.8   -0.1
C    -0.8   -0.1    1.2
O    -0.7    1.1    1.2
H    -0.5   -1.9   -0.0
H     0.7   -0.6   -0.3
H    -1.0   -0.5   -0.9
N    -1.2   -0.9    2.2
C    -1.6   -0.4    3.6
C    -2.9    0.3    3.6
O    -3.8   -0.2    4.4
H    -1.2   -1.9    2.0
H    -1.7   -1.4    4.2
C    -0.4    0.4    4.3
C    -0.7    0.6    5.8
C     0.3    1.6    6.4
N     0.3    2.9    5.9
C     1.3    3.6    5.3
N     2.2    2.8    4.6
N     1.5    4.9    5.4
H    -0.3    1.3    3.7
H     0.5   -0.2    4.2
H    -0.7   -0.3    6.3
H    -1.7    1.1    5.9
H     1.4    1.2    6.2
H     0.2    1.6    7.5
H    -0.4    3.5    6.4
H     1.8    2.1    4.0
H     2.9    3.4    4.2
H     0.9    5.4    6.0
N    -3.0    1.4    2.9
C    -4.2    2.2    2.9
H    -2.2    1.6    2.3
H    -4.7    2.2    1.9
H    -4.0    3.2    3.1
H    -5.0    1.8    3.6
