          35
 sphere cut out from bulk 
C    -1.1   -0.9    0.8
C    -0.8   -0.5    2.2
O     0.1   -1.1    2.9
H    -1.5   -0.1    0.1
H    -1.8   -1.8    0.8
H    -0.2   -1.3    0.3
N    -1.6    0.5    2.8
C    -2.5    1.5    2.1
C    -3.7    0.8    1.4
O    -4.1    1.3    0.4
H    -1.2    0.7    3.7
H    -2.9    2.0    3.0
C    -1.7    2.5    1.2
C    -2.4    3.8    1.1
C    -1.7    4.8    0.2
N    -2.4    6.0    0.1
C    -1.9    7.2   -0.4
N    -0.5    7.2   -0.7
N    -2.5    8.3   -0.6
H    -1.6    2.0    0.2
H    -0.7    2.6    1.7
H    -2.6    4.3    2.1
H    -3.4    3.6    0.7
H    -1.5    4.3   -0.8
H    -0.7    5.0    0.6
H    -3.4    6.0    0.0
H    -0.2    8.1   -1.1
H    -0.2    6.4   -1.1
H    -3.5    8.2   -0.3
N    -4.2   -0.3    2.0
C    -5.3   -1.0    1.5
H    -3.6   -0.6    2.8
H    -6.1   -1.2    2.3
H    -5.0   -2.0    1.2
H    -5.7   -0.5    0.7
