          35
 sphere cut out from bulk 
C    -1.8    0.8    0.7
C    -1.6    0.2    2.1
O    -2.0    0.7    3.1
H    -2.8    0.5    0.4
H    -1.1    0.6   -0.0
H    -1.9    1.9    0.8
N    -0.7   -0.9    2.1
C    -0.5   -1.7    3.2
C     0.6   -2.7    2.8
O     0.8   -3.0    1.6
H    -0.4   -1.3    1.2
H    -0.1   -1.1    4.0
C    -1.8   -2.4    3.8
C    -2.5   -3.2    2.8
C    -4.0   -3.4    3.1
N    -4.9   -3.7    2.0
C    -5.2   -2.8    1.0
N    -5.8   -3.4   -0.1
N    -5.0   -1.5    1.1
H    -2.4   -1.6    4.2
H    -1.5   -3.0    4.7
H    -2.1   -4.2    2.6
H    -2.5   -2.6    1.8
H    -4.4   -2.5    3.6
H    -4.1   -4.2    3.9
H    -4.7   -4.7    1.6
H    -6.5   -4.0    0.1
H    -6.2   -2.6   -0.7
H    -4.4   -1.2    1.9
N     1.2   -3.4    3.9
C     2.2   -4.4    3.7
H     1.0   -3.0    4.8
H     3.2   -4.1    4.1
H     2.3   -4.6    2.6
H     1.9   -5.3    4.1
