          35
 sphere cut out from bulk 
C     0.6    1.0    1.8
C    -0.2   -0.3    1.8
O     0.3   -1.4    1.9
H     0.1    1.8    1.4
H     1.5    0.8    1.1
H     1.0    1.2    2.8
N    -1.5   -0.2    1.6
C    -2.4   -1.3    1.8
C    -2.5   -2.3    0.6
O    -3.0   -3.4    0.7
H    -1.9    0.7    1.6
H    -2.0   -1.9    2.6
C    -3.8   -0.7    2.1
C    -5.0   -1.8    2.4
C    -4.7   -2.7    3.6
N    -5.7   -3.7    3.8
C    -5.9   -4.8    3.0
N    -4.8   -5.2    2.2
N    -7.1   -5.4    3.1
H    -4.2   -0.1    1.4
H    -3.7   -0.1    3.1
H    -5.1   -2.3    1.5
H    -5.9   -1.2    2.6
H    -4.6   -2.1    4.5
H    -3.7   -3.2    3.4
H    -6.6   -3.4    4.2
H    -5.0   -6.0    1.6
H    -4.2   -4.6    1.9
H    -7.1   -6.3    2.5
N    -2.1   -1.7   -0.6
C    -2.1   -2.5   -1.9
H    -1.6   -0.8   -0.6
H    -1.1   -2.8   -2.1
H    -2.5   -1.9   -2.7
H    -2.7   -3.4   -1.7
