          35
 sphere cut out from bulk 
C    -0.3   -1.3    2.7
C    -0.2    0.2    3.0
O     0.5    0.6    4.0
H    -1.2   -1.7    3.0
H     0.5   -1.8    3.2
H    -0.2   -1.4    1.6
N    -0.8    1.1    2.2
C    -2.0    0.8    1.4
C    -1.7    0.4   -0.0
O    -2.4   -0.5   -0.5
H    -0.7    2.1    2.6
H    -2.5   -0.1    1.9
C    -3.0    1.9    1.5
C    -3.5    2.4    2.9
C    -4.0    1.3    3.8
N    -2.9    0.6    4.5
C    -3.1   -0.5    5.2
N    -2.0   -1.1    5.8
N    -4.3   -1.0    5.3
H    -3.9    1.5    0.9
H    -2.7    2.8    0.9
H    -4.3    3.1    2.7
H    -2.7    2.9    3.4
H    -4.6    0.6    3.3
H    -4.7    1.8    4.6
H    -2.1    1.2    4.8
H    -1.1   -0.6    5.7
H    -2.1   -1.6    6.6
H    -4.3   -1.9    5.8
N    -0.8    1.1   -0.8
C     0.1    2.2   -0.4
H    -0.7    0.7   -1.7
H     0.5    2.6   -1.3
H     0.9    1.9    0.3
H    -0.5    3.0    0.1
