          35
 sphere cut out from bulk 
C    -0.4    0.7   -0.6
C    -0.6    0.1    0.8
O    -0.1   -0.9    1.2
H     0.6    0.9   -0.7
H    -1.0    1.6   -0.8
H    -0.8   -0.1   -1.3
N    -1.5    0.8    1.6
C    -1.9    0.4    3.0
C    -3.3   -0.2    2.9
O    -4.3    0.6    2.8
H    -2.1    1.6    1.2
H    -1.1   -0.3    3.3
C    -1.8    1.6    4.0
C    -0.5    2.2    4.2
C    -0.4    3.3    5.2
N    -0.8    2.9    6.5
C    -1.8    3.4    7.3
N    -2.9    3.9    6.5
N    -1.7    3.5    8.6
H    -2.2    1.2    5.0
H    -2.6    2.3    3.7
H    -0.1    2.6    3.2
H     0.3    1.4    4.5
H    -1.1    4.1    4.9
H     0.6    3.8    5.2
H    -0.0    2.7    7.2
H    -3.8    4.1    7.1
H    -3.2    3.3    5.8
H    -2.6    3.8    9.0
N    -3.4   -1.5    3.1
C    -2.4   -2.5    3.2
H    -4.4   -1.9    3.0
H    -1.5   -2.3    2.6
H    -2.8   -3.5    3.0
H    -2.0   -2.6    4.3
