          35
 sphere cut out from bulk 
C    -1.0    0.1   -0.4
C    -0.2   -0.0    0.9
O     1.0   -0.2    0.9
H    -0.4   -0.4   -1.2
H    -1.2    1.1   -0.7
H    -1.9   -0.5   -0.3
N    -0.8    0.1    2.1
C    -2.3    0.2    2.3
C    -3.0   -1.0    1.9
O    -2.5   -2.1    2.0
H    -0.2   -0.0    2.9
H    -2.3    0.2    3.4
C    -2.9    1.6    1.9
C    -2.1    2.8    2.4
C    -2.8    4.2    2.0
N    -4.2    4.3    2.4
C    -5.2    3.8    1.7
N    -5.1    3.7    0.3
N    -6.3    3.4    2.2
H    -3.9    1.6    2.2
H    -2.9    1.6    0.8
H    -1.1    2.8    2.1
H    -2.1    2.8    3.5
H    -2.7    4.2    0.9
H    -2.2    5.0    2.4
H    -4.3    4.3    3.4
H    -6.0    3.5   -0.2
H    -4.7    4.6   -0.1
H    -6.3    3.3    3.2
N    -4.3   -0.8    1.4
C    -5.1   -2.0    1.0
H    -4.7    0.1    1.3
H    -6.1   -1.9    1.6
H    -4.6   -2.9    1.3
H    -5.3   -2.0   -0.1
