          35
 sphere cut out from bulk 
C     0.8   -0.2    0.1
C     0.4   -0.3    1.6
O     1.3   -0.7    2.4
H     1.2   -1.2   -0.2
H     1.5    0.5   -0.1
H    -0.1    0.0   -0.6
N    -0.9    0.0    1.9
C    -1.4   -0.2    3.2
C    -3.0    0.0    3.2
O    -3.6   -0.7    4.0
H    -1.5    0.0    1.1
H    -1.3   -1.2    3.5
C    -0.8    0.6    4.4
C    -0.7    2.1    4.3
C     0.3    2.7    3.3
N     0.6    4.2    3.5
C     1.4    4.7    4.5
N     1.3    6.1    4.6
N     2.1    4.0    5.3
H     0.3    0.2    4.5
H    -1.3    0.3    5.3
H    -0.4    2.5    5.3
H    -1.7    2.6    4.1
H     0.0    2.5    2.3
H     1.3    2.2    3.4
H    -0.2    4.8    3.2
H     1.9    6.4    5.2
H     1.3    6.5    3.7
H     2.0    3.0    5.2
N    -3.6    0.9    2.4
C    -3.1    2.1    1.8
H    -4.6    0.9    2.6
H    -3.5    2.2    0.8
H    -2.0    2.1    1.7
H    -3.4    3.0    2.4
