          35
 sphere cut out from bulk 
C    -4.1    0.9   -0.0
C    -2.8    0.8    0.8
O    -1.7    1.0    0.2
H    -5.0    0.8    0.6
H    -4.1    0.1   -0.8
H    -4.2    1.9   -0.5
N    -3.0    0.6    2.1
C    -1.8    0.3    3.0
C    -2.2   -0.8    3.9
O    -3.4   -1.0    4.2
H    -3.9    0.3    2.5
H    -1.0    0.0    2.3
C    -1.4    1.6    3.8
C    -1.0    2.8    3.0
C    -0.3    3.9    3.8
N     0.9    3.5    4.5
C     2.2    3.7    4.0
N     2.2    3.9    2.6
N     3.2    3.8    4.8
H    -0.5    1.3    4.5
H    -2.2    1.8    4.5
H    -1.9    3.2    2.5
H    -0.3    2.4    2.2
H    -1.0    4.2    4.6
H    -0.1    4.8    3.2
H     1.0    3.5    5.5
H     3.2    3.9    2.2
H     1.6    3.4    2.0
H     4.1    3.9    4.3
N    -1.2   -1.5    4.4
C    -1.4   -2.6    5.4
H    -0.3   -1.3    4.2
H    -0.9   -2.4    6.4
H    -1.0   -3.5    5.0
H    -2.5   -2.7    5.6
