          35
 sphere cut out from bulk 
C    -1.2    0.5    0.2
C    -0.9    0.2    1.6
O    -0.2    1.0    2.3
H    -1.9   -0.3   -0.3
H    -0.3    0.6   -0.4
H    -1.8    1.5    0.1
N    -1.4   -0.9    2.2
C    -1.1   -1.3    3.5
C     0.3   -2.1    3.6
O     0.3   -3.3    3.8
H    -1.8   -1.6    1.6
H    -1.0   -0.4    4.1
C    -2.2   -2.1    4.1
C    -3.6   -1.4    4.1
C    -3.7   -0.1    4.9
N    -5.0    0.5    4.9
C    -5.9    0.4    6.0
N    -5.7   -0.7    6.8
N    -6.9    1.2    6.2
H    -2.0   -2.4    5.2
H    -2.3   -3.1    3.6
H    -4.4   -2.1    4.5
H    -3.9   -1.2    3.0
H    -3.0    0.6    4.5
H    -3.4   -0.3    5.9
H    -5.1    1.3    4.4
H    -6.4   -0.8    7.5
H    -5.5   -1.6    6.4
H    -6.8    2.0    5.6
N     1.3   -1.2    3.5
C     2.7   -1.7    3.5
H     1.1   -0.2    3.3
H     3.1   -1.6    2.5
H     2.7   -2.8    3.8
H     3.3   -1.2    4.2
