          35
 sphere cut out from bulk 
C     1.1   -0.5    0.8
C     0.6    0.0    2.1
O     1.4    0.6    2.9
H     1.9   -1.2    0.9
H     1.4    0.4    0.2
H     0.3   -1.0    0.2
N    -0.7   -0.2    2.4
C    -1.2    0.2    3.7
C    -0.9   -0.8    4.8
O    -1.7   -1.7    5.2
H    -1.2   -0.8    1.8
H    -0.7    1.1    3.9
C    -2.7    0.6    3.6
C    -3.8   -0.5    3.5
C    -3.6   -1.6    2.5
N    -4.6   -2.6    2.5
C    -4.7   -3.6    3.5
N    -3.5   -3.9    4.2
N    -5.8   -4.3    3.5
H    -2.8    1.2    2.7
H    -3.0    1.3    4.4
H    -4.8    0.0    3.3
H    -3.9   -0.9    4.5
H    -2.6   -2.1    2.6
H    -3.6   -1.2    1.5
H    -5.5   -2.4    2.1
H    -3.7   -4.5    5.0
H    -3.0   -3.1    4.5
H    -5.8   -5.0    4.2
N     0.3   -0.6    5.3
C     0.9   -1.5    6.3
H     0.9    0.0    4.8
H     1.5   -2.3    5.8
H     0.1   -2.0    6.8
H     1.6   -1.0    7.0
