          35
 sphere cut out from bulk 
C     1.1    0.5    0.8
C     0.4    0.2    2.1
O     0.9    0.2    3.2
H     1.8   -0.3    0.6
H     1.7    1.4    0.9
H     0.4    0.6   -0.1
N    -1.0   -0.1    2.0
C    -1.8   -0.6    3.1
C    -1.6    0.1    4.4
O    -1.4   -0.5    5.5
H    -1.4   -0.2    1.0
H    -2.8   -0.3    2.8
C    -1.9   -2.1    3.1
C    -0.6   -2.9    3.1
C     0.3   -2.9    4.3
N    -0.3   -3.2    5.6
C    -0.6   -4.5    5.9
N    -1.4   -4.6    7.0
N    -0.3   -5.6    5.3
H    -2.5   -2.5    2.3
H    -2.4   -2.4    4.1
H    -0.0   -2.6    2.2
H    -0.9   -4.0    2.9
H     0.8   -1.9    4.4
H     1.2   -3.5    4.1
H    -0.9   -2.5    5.9
H    -1.5   -5.5    7.4
H    -1.2   -3.9    7.8
H     0.2   -5.5    4.5
N    -1.6    1.5    4.5
C    -1.8    2.4    3.4
H    -1.4    1.8    5.4
H    -2.1    3.4    3.8
H    -2.5    2.1    2.6
H    -0.8    2.6    2.9
