          35
 sphere cut out from bulk 
C     0.5    0.5    1.0
C    -0.4   -0.3    2.0
O    -0.3   -1.5    2.1
H    -0.1    0.9    0.2
H     1.1   -0.3    0.5
H     1.1    1.2    1.5
N    -1.4    0.4    2.7
C    -1.9    1.8    2.8
C    -3.4    1.8    2.4
O    -4.2    2.4    3.2
H    -1.8   -0.3    3.3
H    -1.9    2.0    3.9
C    -1.1    2.9    2.1
C    -1.8    4.3    2.3
C    -1.6    4.8    3.8
N    -2.4    5.9    4.0
C    -3.5    6.0    4.9
N    -4.0    4.7    5.2
N    -3.8    7.1    5.4
H    -1.1    2.7    1.0
H    -0.1    2.9    2.4
H    -2.8    4.3    2.1
H    -1.3    5.0    1.6
H    -0.5    5.0    3.9
H    -1.8    4.0    4.5
H    -2.0    6.9    4.0
H    -4.9    4.7    5.7
H    -4.0    4.0    4.5
H    -4.7    7.0    6.0
N    -3.9    1.2    1.3
C    -3.2    0.6    0.2
H    -4.9    1.3    1.2
H    -3.9    0.4   -0.6
H    -2.8   -0.5    0.5
H    -2.3    1.1   -0.1
