          35
 sphere cut out from bulk 
C     0.5   -1.5    0.8
C     0.3   -0.7    2.0
O     1.1   -0.0    2.5
H     1.2   -2.3    1.0
H     1.0   -0.8    0.0
H    -0.4   -1.9    0.3
N    -1.0   -0.8    2.6
C    -1.4   -0.3    3.9
C    -0.7    1.0    4.3
O    -0.2    1.2    5.4
H    -1.6   -1.6    2.2
H    -2.5   -0.1    3.8
C    -1.3   -1.4    5.0
C     0.0   -2.1    5.1
C    -0.1   -3.6    5.4
N    -1.0   -4.3    4.3
C    -0.6   -4.3    3.0
N     0.7   -4.7    2.8
N    -1.5   -4.0    2.1
H    -2.1   -2.1    4.8
H    -1.5   -0.9    6.0
H     0.6   -1.7    5.9
H     0.6   -2.0    4.2
H    -0.7   -3.8    6.3
H     0.8   -4.1    5.4
H    -1.9   -4.1    4.4
H     1.0   -4.8    1.8
H     1.2   -5.3    3.4
H    -1.2   -4.3    1.2
N    -0.9    2.0    3.3
C    -0.1    3.2    3.5
H    -1.1    1.7    2.4
H    -0.6    4.0    2.8
H     0.9    3.1    3.2
H    -0.2    3.6    4.5
