          35
 sphere cut out from bulk 
C     0.7    0.5    0.6
C    -0.2   -0.6    1.2
O     0.1   -1.8    1.1
H     0.8    0.3   -0.5
H     1.7    0.5    1.0
H     0.2    1.5    0.7
N    -1.3   -0.2    1.8
C    -2.2   -1.1    2.5
C    -3.6   -0.9    1.9
O    -4.5   -0.3    2.5
H    -1.5    0.8    1.9
H    -1.8   -2.1    2.3
C    -2.1   -0.9    4.0
C    -3.1   -1.7    4.9
C    -3.3   -3.1    4.5
N    -4.4   -3.8    5.2
C    -5.6   -4.0    4.7
N    -5.9   -3.1    3.6
N    -6.4   -4.9    5.2
H    -2.3    0.2    4.2
H    -1.1   -1.1    4.3
H    -4.1   -1.2    4.8
H    -2.8   -1.6    5.9
H    -2.3   -3.7    4.8
H    -3.4   -3.3    3.4
H    -4.1   -4.5    5.9
H    -6.9   -3.1    3.4
H    -5.5   -2.2    3.6
H    -7.3   -4.8    4.8
N    -3.9   -1.5    0.7
C    -3.0   -2.2   -0.2
H    -4.8   -1.4    0.4
H    -3.5   -3.0   -0.7
H    -2.1   -2.6    0.3
H    -2.6   -1.5   -0.9
