          35
 sphere cut out from bulk 
C     0.7   -1.8    1.0
C     0.4   -1.3    2.4
O     1.0   -1.6    3.4
H     1.8   -1.5    0.8
H     0.1   -1.4    0.2
H     0.7   -2.9    1.0
N    -0.7   -0.4    2.4
C    -1.3    0.1    3.7
C    -2.8   -0.1    3.6
O    -3.4   -0.0    2.5
H    -1.3   -0.3    1.6
H    -0.8   -0.6    4.5
C    -0.9    1.5    4.0
C     0.6    1.8    4.1
C     0.9    3.3    4.5
N     2.3    3.6    4.5
C     3.2    3.1    5.5
N     2.7    2.9    6.7
N     4.4    3.1    5.1
H    -1.4    1.8    4.9
H    -1.4    2.2    3.2
H     1.1    1.6    3.1
H     1.0    1.1    4.8
H     0.4    3.5    5.4
H     0.4    3.9    3.7
H     2.7    3.8    3.6
H     3.2    2.2    7.3
H     1.7    2.7    6.8
H     5.0    2.8    5.9
N    -3.5   -0.3    4.8
C    -2.9   -0.5    6.1
H    -4.5   -0.3    4.6
H    -2.5    0.5    6.5
H    -2.2   -1.2    6.1
H    -3.8   -0.8    6.8
