          35
 sphere cut out from bulk 
C    -1.0    0.6   -0.2
C    -0.6    0.7    1.3
O     0.5    1.3    1.5
H    -0.9    1.5   -0.7
H    -2.0    0.2   -0.3
H    -0.3   -0.2   -0.6
N    -1.3    0.2    2.3
C    -2.8   -0.2    2.4
C    -3.2   -1.3    1.4
O    -4.3   -1.3    0.9
H    -0.9    0.4    3.2
H    -2.9   -0.7    3.3
C    -3.7    1.0    2.4
C    -3.7    2.0    1.2
C    -4.7    3.1    1.4
N    -4.6    4.1    0.3
C    -3.5    4.8    0.0
N    -2.7    5.3    1.1
N    -3.2    5.0   -1.2
H    -3.5    1.6    3.3
H    -4.7    0.6    2.5
H    -4.0    1.4    0.3
H    -2.7    2.4    1.1
H    -4.5    3.6    2.4
H    -5.7    2.8    1.5
H    -5.1    3.9   -0.5
H    -1.7    5.5    0.9
H    -2.9    5.0    2.0
H    -2.4    5.7   -1.4
N    -2.2   -2.2    1.1
C    -2.4   -3.3    0.2
H    -1.3   -2.0    1.5
H    -2.1   -4.3    0.7
H    -1.8   -3.2   -0.7
H    -3.5   -3.4   -0.0
