          35
 sphere cut out from bulk 
C    -1.5    2.1    2.1
C    -1.3    1.0    3.1
O    -1.2    1.2    4.3
H    -2.4    2.6    2.4
H    -1.5    1.7    1.1
H    -0.7    2.8    2.2
N    -1.1   -0.3    2.6
C    -0.8   -1.4    3.5
C    -0.2   -2.5    2.5
O    -0.3   -2.4    1.3
H    -1.1   -0.4    1.6
H    -0.1   -1.1    4.2
C    -2.0   -2.0    4.2
C    -3.0   -2.9    3.5
C    -3.7   -2.4    2.3
N    -4.5   -3.4    1.6
C    -4.0   -4.3    0.8
N    -5.0   -5.2    0.3
N    -2.8   -4.5    0.4
H    -2.6   -1.1    4.6
H    -1.7   -2.5    5.1
H    -3.7   -3.3    4.2
H    -2.4   -3.8    3.2
H    -3.0   -1.9    1.6
H    -4.3   -1.5    2.6
H    -5.5   -3.1    1.5
H    -5.7   -5.5    1.0
H    -4.6   -5.9   -0.3
H    -2.2   -3.7    0.7
N     0.4   -3.5    3.1
C     0.9   -4.7    2.4
H     0.4   -3.5    4.1
H     0.1   -5.1    1.8
H     1.2   -5.4    3.1
H     1.7   -4.4    1.7
