          35
 sphere cut out from bulk 
C    -0.1   -0.1   -0.1
C     0.1   -0.1    1.5
O     1.2   -0.2    2.0
H    -0.6   -1.1   -0.4
H     1.0   -0.1   -0.5
H    -0.6    0.7   -0.5
N    -1.1    0.1    2.2
C    -2.5    0.1    1.8
C    -2.8   -1.3    1.1
O    -2.6   -2.3    1.7
H    -0.9   -0.0    3.2
H    -3.0   -0.1    2.7
C    -3.0    1.4    1.2
C    -2.8    2.5    2.2
C    -3.3    3.9    1.7
N    -3.1    5.0    2.6
C    -1.9    5.7    2.6
N    -1.9    6.7    3.7
N    -0.8    5.5    1.9
H    -4.0    1.3    1.0
H    -2.4    1.7    0.3
H    -1.7    2.7    2.5
H    -3.3    2.3    3.2
H    -4.4    3.8    1.5
H    -2.9    4.1    0.7
H    -3.6    5.0    3.5
H    -1.0    7.2    3.6
H    -2.7    7.2    3.7
H    -0.9    4.7    1.3
N    -3.4   -1.3   -0.2
C    -3.6   -0.3   -1.2
H    -3.6   -2.3   -0.5
H    -4.4    0.4   -1.0
H    -2.7    0.3   -1.4
H    -3.9   -0.8   -2.2
