          35
 sphere cut out from bulk 
C    -0.3    0.1   -0.2
C    -0.1    0.0    1.3
O     1.0    0.1    1.8
H    -1.2    0.5   -0.5
H    -0.3   -1.0   -0.6
H     0.6    0.6   -0.6
N    -1.2   -0.1    2.1
C    -2.7   -0.0    1.9
C    -3.1   -0.8    0.6
O    -3.7   -0.3   -0.3
H    -1.0   -0.1    3.1
H    -3.1   -0.6    2.7
C    -3.3    1.4    1.9
C    -2.8    2.5    1.0
C    -1.6    3.2    1.5
N    -1.2    4.4    0.8
C    -1.9    5.6    0.9
N    -1.5    6.5   -0.1
N    -2.8    5.9    1.8
H    -3.3    1.7    3.0
H    -4.4    1.2    1.7
H    -3.6    3.2    0.9
H    -2.6    2.1   -0.0
H    -0.7    2.5    1.5
H    -1.7    3.5    2.6
H    -0.8    4.2   -0.2
H    -1.9    7.5    0.2
H    -0.5    6.6   -0.2
H    -3.1    5.1    2.3
N    -2.7   -2.1    0.5
C    -2.0   -3.0    1.5
H    -3.0   -2.6   -0.3
H    -0.9   -2.8    1.5
H    -2.3   -4.0    1.3
H    -2.4   -2.7    2.5
