          35
 sphere cut out from bulk 
C    -0.2    0.9   -0.0
C     0.1   -0.1    1.1
O     1.2   -0.6    1.2
H    -0.5    1.8    0.4
H    -1.0    0.5   -0.7
H     0.7    1.0   -0.6
N    -0.9   -0.5    2.0
C    -2.3   -0.3    2.2
C    -3.1   -1.6    2.1
O    -3.9   -1.9    3.1
H    -0.5   -1.1    2.7
H    -2.5    0.0    3.3
C    -3.0    0.9    1.4
C    -4.4    1.2    1.8
C    -5.5    0.3    1.1
N    -6.9    0.7    1.4
C    -7.4    2.0    1.1
N    -7.0    2.5   -0.2
N    -8.3    2.5    1.8
H    -3.0    0.7    0.3
H    -2.4    1.8    1.6
H    -4.6    2.2    1.6
H    -4.6    1.1    2.9
H    -5.4   -0.7    1.4
H    -5.3    0.4    0.0
H    -7.2    0.4    2.3
H    -7.1    3.5   -0.3
H    -6.2    2.1   -0.6
H    -8.7    3.3    1.4
N    -3.0   -2.4    1.1
C    -2.2   -2.2   -0.2
H    -3.6   -3.2    1.1
H    -2.6   -3.0   -0.9
H    -1.2   -2.4    0.0
H    -2.4   -1.3   -0.6
