          35
 sphere cut out from bulk 
C    -0.1   -3.6   -0.3
C    -0.1   -2.7    0.9
O     0.9   -2.0    1.2
H    -1.1   -4.1   -0.5
H     0.7   -4.3   -0.3
H     0.1   -3.0   -1.2
N    -1.2   -2.6    1.6
C    -1.4   -1.8    2.8
C    -0.7   -2.4    4.1
O    -1.4   -2.6    5.1
H    -2.0   -3.2    1.4
H    -0.8   -0.8    2.6
C    -2.8   -1.3    3.0
C    -3.8   -2.5    3.0
C    -5.3   -2.0    3.4
N    -5.5   -1.6    4.7
C    -5.7   -2.5    5.7
N    -5.8   -1.9    7.0
N    -5.9   -3.8    5.6
H    -3.1   -0.6    2.2
H    -2.9   -0.8    3.9
H    -3.5   -3.2    3.8
H    -3.9   -3.0    2.0
H    -6.0   -2.8    3.1
H    -5.5   -1.1    2.7
H    -5.0   -0.8    5.1
H    -6.3   -1.1    7.0
H    -6.1   -2.6    7.7
H    -5.7   -4.1    4.7
N     0.6   -2.6    4.0
C     1.4   -3.2    5.1
H     1.1   -2.3    3.1
H     0.7   -3.4    5.9
H     2.2   -2.5    5.4
H     1.8   -4.1    4.8
