          35
 sphere cut out from bulk 
C    -0.0   -0.3   -0.4
C     0.1   -0.1    1.1
O     1.0    0.5    1.7
H     0.9   -0.8   -0.7
H    -0.0    0.6   -0.9
H    -0.9   -0.9   -0.7
N    -1.0   -0.6    1.9
C    -1.2   -0.3    3.3
C    -0.2   -1.0    4.3
O    -0.1   -0.5    5.4
H    -1.8   -1.0    1.3
H    -0.9    0.7    3.4
C    -2.6   -0.6    3.7
C    -3.0   -2.1    3.7
C    -4.5   -2.3    4.1
N    -5.5   -1.8    3.1
C    -6.1   -0.6    3.1
N    -6.9   -0.4    2.0
N    -6.0    0.3    4.0
H    -3.3   -0.0    3.0
H    -2.7   -0.2    4.7
H    -2.4   -2.6    4.4
H    -2.9   -2.5    2.7
H    -4.8   -1.8    5.0
H    -4.7   -3.4    4.2
H    -5.4   -2.3    2.2
H    -7.5    0.5    2.1
H    -7.5   -1.2    1.7
H    -5.3    0.1    4.8
N     0.5   -2.2    4.0
C     0.6   -2.9    2.7
H     1.1   -2.4    4.7
H     1.2   -2.4    2.0
H    -0.4   -3.2    2.3
H     1.1   -3.9    3.0
