          35
 sphere cut out from bulk 
C    -0.1    0.0    1.4
C    -1.5   -0.4    1.9
O    -1.5   -1.1    3.0
H    -0.0    1.1    1.3
H     0.0   -0.4    0.3
H     0.7   -0.4    2.0
N    -2.6   -0.0    1.3
C    -2.8    0.8    0.1
C    -2.2    0.1   -1.1
O    -2.5   -1.1   -1.3
H    -3.4   -0.5    1.7
H    -3.9    0.7   -0.1
C    -2.5    2.3    0.3
C    -3.3    2.9    1.6
C    -4.8    2.8    1.4
N    -5.5    3.4    2.5
C    -6.8    3.7    2.5
N    -7.3    4.2    3.7
N    -7.5    3.5    1.4
H    -2.8    2.8   -0.6
H    -1.5    2.5    0.5
H    -3.0    3.9    1.7
H    -3.0    2.3    2.5
H    -5.2    1.8    1.3
H    -5.2    3.3    0.5
H    -5.1    3.1    3.5
H    -8.3    4.0    3.9
H    -6.8    4.1    4.5
H    -8.5    3.9    1.5
N    -1.3    0.7   -2.0
C    -0.6    1.9   -1.9
H    -1.1    0.0   -2.8
H    -1.2    2.8   -2.0
H     0.1    1.9   -2.8
H     0.1    2.0   -1.0
