          35
 sphere cut out from bulk 
C    -0.2    0.4   -0.4
C     0.1    1.1    0.9
O     1.3    1.6    1.0
H     0.6    0.5   -1.1
H    -0.4   -0.7   -0.2
H    -1.1    0.8   -0.9
N    -0.8    1.3    1.9
C    -2.2    0.8    2.0
C    -2.2   -0.7    2.1
O    -1.8   -1.2    3.2
H    -0.4    1.7    2.7
H    -2.4    1.1    3.0
C    -3.2    1.6    1.1
C    -4.7    1.3    1.3
C    -5.3    1.3    2.7
N    -4.9    0.1    3.4
C    -5.3   -1.2    3.2
N    -4.7   -2.1    4.0
N    -6.2   -1.6    2.3
H    -2.9    1.6    0.1
H    -3.0    2.7    1.4
H    -4.9    0.4    0.8
H    -5.2    2.1    0.7
H    -6.4    1.3    2.6
H    -5.0    2.1    3.3
H    -4.4    0.2    4.3
H    -5.0   -3.1    3.7
H    -3.7   -2.0    4.1
H    -6.7   -0.8    1.9
N    -2.6   -1.6    1.2
C    -3.3   -1.4   -0.1
H    -2.6   -2.5    1.5
H    -2.8   -2.1   -0.9
H    -3.1   -0.4   -0.5
H    -4.3   -1.6   -0.1
