          35
 sphere cut out from bulk 
C     0.5   -0.6   -0.6
C     0.3    0.0    0.8
O     1.2    0.7    1.4
H     1.6   -0.6   -0.8
H    -0.0   -0.1   -1.3
H     0.2   -1.7   -0.6
N    -0.9   -0.1    1.4
C    -2.1   -0.9    1.1
C    -1.9   -2.4    1.4
O    -0.9   -3.0    1.2
H    -0.9    0.3    2.4
H    -2.8   -0.6    1.9
C    -2.7   -0.7   -0.2
C    -3.2    0.8   -0.5
C    -4.1    1.4    0.5
N    -5.2    0.5    0.9
C    -5.3   -0.0    2.2
N    -5.1    0.9    3.2
N    -5.6   -1.3    2.3
H    -3.6   -1.3   -0.3
H    -2.1   -1.0   -1.0
H    -2.3    1.4   -0.6
H    -3.6    0.8   -1.5
H    -4.5    2.4    0.1
H    -3.5    1.7    1.4
H    -5.5   -0.1    0.2
H    -5.2    0.5    4.2
H    -5.4    1.8    3.1
H    -5.8   -1.5    3.3
N    -3.1   -3.0    1.7
C    -3.2   -4.5    1.9
H    -3.9   -2.5    1.9
H    -3.5   -4.7    2.9
H    -2.2   -4.9    1.7
H    -3.9   -4.9    1.2
