          35
 sphere cut out from bulk 
C     1.5    0.1    0.2
C     1.0    0.5    1.6
O     1.7    0.7    2.5
H     0.8   -0.4   -0.5
H     2.4   -0.5    0.3
H     1.8    1.1   -0.3
N    -0.4    0.4    1.7
C    -1.1    0.9    2.8
C    -0.5    2.3    3.2
O    -0.3    3.2    2.4
H    -0.9    0.3    0.8
H    -2.1    1.2    2.5
C    -1.4   -0.1    3.9
C    -0.3   -1.1    4.4
C     0.8   -0.5    5.3
N     0.3    0.3    6.4
C    -0.3   -0.3    7.5
N    -0.6    0.6    8.5
N    -0.7   -1.6    7.5
H    -2.2   -0.8    3.5
H    -1.9    0.3    4.8
H     0.2   -1.5    3.5
H    -0.8   -1.9    4.9
H     1.5    0.1    4.7
H     1.4   -1.4    5.7
H     1.0    1.0    6.7
H    -0.7    0.2    9.4
H    -0.1    1.5    8.6
H    -1.2   -1.8    8.3
N    -0.4    2.5    4.6
C     0.1    3.8    5.1
H    -0.5    1.8    5.2
H    -0.2    4.6    4.4
H    -0.3    4.0    6.1
H     1.2    3.8    5.2
