          35
 sphere cut out from bulk 
C    -0.7   -1.0    0.9
C    -0.7   -0.4    2.2
O    -0.1    0.7    2.4
H     0.4   -1.2    0.6
H    -1.1   -0.3    0.2
H    -1.2   -2.0    0.8
N    -1.3   -1.1    3.2
C    -1.3   -0.8    4.7
C    -2.3   -1.7    5.4
O    -2.2   -1.9    6.6
H    -1.5   -2.1    3.0
H    -0.3   -1.1    5.1
C    -1.6    0.7    5.0
C    -2.8    1.3    4.4
C    -3.8    2.0    5.4
N    -4.4    1.1    6.4
C    -5.5    0.3    6.1
N    -5.8   -0.5    7.2
N    -6.2    0.3    5.0
H    -0.7    1.3    4.7
H    -1.6    0.7    6.1
H    -3.4    0.5    3.9
H    -2.6    2.0    3.6
H    -4.5    2.5    4.9
H    -3.2    2.7    6.0
H    -3.7    0.7    7.1
H    -6.8   -0.9    7.0
H    -5.8   -0.1    8.1
H    -5.7    0.9    4.3
N    -3.4   -2.2    4.7
C    -4.5   -2.9    5.2
H    -3.5   -1.8    3.7
H    -4.4   -4.0    4.9
H    -5.4   -2.5    5.0
H    -4.3   -2.9    6.3
