          35
 sphere cut out from bulk 
C    -0.6    0.2   -0.1
C    -0.6   -0.3    1.3
O     0.4   -0.7    1.9
H     0.3   -0.2   -0.6
H    -0.5    1.3   -0.1
H    -1.5   -0.1   -0.7
N    -1.8   -0.3    1.9
C    -3.2    0.1    1.5
C    -3.7   -0.8    0.4
O    -3.9   -0.4   -0.8
H    -1.7   -0.7    2.9
H    -3.8   -0.1    2.4
C    -3.4    1.6    1.2
C    -2.7    2.5    2.1
C    -3.1    2.4    3.6
N    -4.5    2.4    3.9
C    -5.3    1.2    4.1
N    -4.6    0.2    4.8
N    -6.5    1.2    3.6
H    -4.5    1.7    1.1
H    -3.0    1.7    0.1
H    -3.0    3.6    1.8
H    -1.6    2.5    2.1
H    -2.6    3.2    4.2
H    -2.6    1.5    4.0
H    -5.0    3.1    3.4
H    -5.2   -0.5    5.1
H    -4.0    0.5    5.5
H    -7.0    0.4    4.0
N    -3.9   -2.1    0.7
C    -3.7   -2.8    1.9
H    -4.2   -2.7   -0.1
H    -2.6   -3.1    2.1
H    -4.3   -3.7    2.0
H    -4.0   -2.2    2.8
