          35
 sphere cut out from bulk 
C     0.8   -2.3    0.4
C     0.5   -1.8    1.8
O     0.8   -2.4    2.8
H     0.2   -3.2    0.2
H     1.9   -2.6    0.4
H     0.7   -1.6   -0.4
N    -0.2   -0.6    1.8
C    -0.7    0.1    3.0
C     0.3    0.8    3.9
O     0.2    2.0    4.2
H    -0.4   -0.2    0.9
H    -1.3    0.9    2.5
C    -1.7   -0.7    3.8
C    -2.9   -1.2    3.1
C    -2.8   -2.7    2.7
N    -3.8   -3.2    1.8
C    -3.8   -2.9    0.4
N    -4.9   -3.4   -0.3
N    -2.8   -2.3   -0.2
H    -2.0   -0.0    4.6
H    -1.2   -1.5    4.3
H    -3.1   -0.7    2.2
H    -3.9   -1.1    3.7
H    -2.9   -3.4    3.6
H    -1.8   -2.9    2.2
H    -4.8   -3.3    2.1
H    -4.8   -3.2   -1.3
H    -5.2   -4.3   -0.0
H    -2.1   -1.9    0.4
N     1.4    0.0    4.3
C     2.4    0.5    5.1
H     1.3   -1.0    4.0
H     2.2    1.6    5.3
H     3.4    0.3    4.7
H     2.4   -0.0    6.1
