          35
 sphere cut out from bulk 
C    -2.3   -1.4   -0.3
C    -1.4   -0.5    0.6
O    -0.2   -0.5    0.6
H    -1.6   -1.8   -1.0
H    -3.0   -0.8   -0.8
H    -2.8   -2.1    0.2
N    -2.1    0.3    1.5
C    -3.5    0.3    1.8
C    -4.2    1.6    1.2
O    -5.5    1.7    1.4
H    -1.5    0.7    2.2
H    -4.0   -0.5    1.2
C    -3.8    0.1    3.3
C    -4.3   -1.3    3.6
C    -5.8   -1.5    3.3
N    -6.3   -1.1    2.0
C    -6.0   -1.9    0.9
N    -6.2   -1.3   -0.3
N    -5.5   -3.1    1.1
H    -4.6    0.9    3.6
H    -2.9    0.4    3.9
H    -4.2   -1.5    4.7
H    -3.7   -2.0    3.1
H    -6.4   -0.9    4.0
H    -6.0   -2.6    3.5
H    -6.3   -0.1    1.8
H    -6.3   -1.9   -1.1
H    -6.9   -0.6   -0.3
H    -5.4   -3.6    0.2
N    -3.5    2.5    0.6
C    -4.0    3.6   -0.1
H    -2.5    2.2    0.5
H    -5.1    3.7    0.2
H    -3.9    3.6   -1.2
H    -3.5    4.5    0.2
