          35
 sphere cut out from bulk 
C    -0.3   -0.7   -0.1
C    -0.2   -0.4    1.4
O     0.9   -0.2    1.9
H     0.2    0.1   -0.7
H    -1.3   -0.8   -0.5
H     0.3   -1.6   -0.4
N    -1.3   -0.3    2.0
C    -1.4    0.1    3.5
C    -1.2   -1.2    4.4
O    -2.0   -1.6    5.2
H    -2.2   -0.5    1.6
H    -0.6    0.8    3.6
C    -2.8    0.8    3.8
C    -4.0   -0.0    3.4
C    -5.3    0.7    3.9
N    -6.5   -0.1    3.5
C    -7.8    0.4    3.5
N    -7.9    1.8    3.7
N    -8.8   -0.2    3.2
H    -2.7    1.7    3.3
H    -2.8    0.9    4.9
H    -4.0   -1.0    3.8
H    -4.1   -0.1    2.3
H    -5.3    1.7    3.5
H    -5.2    0.8    5.0
H    -6.4   -1.1    3.6
H    -8.8    2.1    3.8
H    -7.3    2.2    4.5
H    -8.6   -1.2    3.0
N     0.1   -1.7    4.3
C     0.5   -2.8    5.0
H     0.7   -1.2    3.6
H     1.4   -2.6    5.6
H     0.8   -3.7    4.3
H    -0.2   -3.1    5.7
