          35
 sphere cut out from bulk 
C    -1.0   -2.6    0.1
C    -0.2   -1.4    0.7
O     1.0   -1.4    0.6
H    -1.3   -2.3   -0.9
H    -0.4   -3.4    0.0
H    -1.9   -2.8    0.6
N    -0.9   -0.5    1.4
C    -2.3   -0.2    1.4
C    -2.9   -0.1   -0.0
O    -2.3    0.3   -1.0
H    -0.3    0.3    1.8
H    -2.9   -0.9    2.0
C    -2.5    1.2    2.1
C    -2.1    2.5    1.4
C    -0.6    2.5    0.9
N     0.3    2.2    2.0
C     1.7    2.2    1.8
N     2.1    1.4    0.7
N     2.6    2.9    2.4
H    -2.0    1.1    3.1
H    -3.6    1.3    2.4
H    -2.2    3.3    2.1
H    -2.7    2.6    0.5
H    -0.4    3.5    0.5
H    -0.5    1.8    0.1
H     0.1    2.7    2.8
H     3.1    1.4    0.6
H     1.7    0.5    0.6
H     2.1    3.5    3.1
N    -4.3   -0.5   -0.0
C    -5.1   -0.4   -1.2
H    -4.7   -0.8    0.8
H    -5.9    0.3   -1.1
H    -5.4   -1.4   -1.5
H    -4.4   -0.0   -2.0
