          35
 sphere cut out from bulk 
C    -0.1   -0.1   -0.1
C    -0.2   -0.4    1.4
O     0.7   -0.7    2.1
H     0.6    0.7   -0.2
H    -1.1    0.2   -0.6
H     0.2   -1.0   -0.6
N    -1.5   -0.2    1.9
C    -1.8   -0.5    3.3
C    -2.0   -2.0    3.5
O    -3.2   -2.5    3.7
H    -2.3   -0.1    1.3
H    -0.9   -0.2    3.9
C    -3.0    0.3    3.8
C    -3.0    0.7    5.3
C    -3.1   -0.5    6.3
N    -1.8   -1.1    6.5
C    -1.5   -2.4    6.9
N    -0.2   -2.5    7.4
N    -2.3   -3.4    6.8
H    -3.9   -0.2    3.5
H    -3.0    1.3    3.2
H    -3.9    1.3    5.5
H    -2.2    1.3    5.6
H    -3.7   -1.3    5.9
H    -3.5   -0.1    7.2
H    -1.0   -0.4    6.7
H    -0.1   -3.5    7.8
H     0.1   -1.8    8.1
H    -3.1   -3.2    6.2
N    -0.9   -2.8    3.5
C    -0.9   -4.2    3.6
H    -0.0   -2.3    3.3
H     0.1   -4.6    3.5
H    -1.6   -4.7    2.9
H    -1.3   -4.5    4.6
