          35
 sphere cut out from bulk 
C     0.2    1.3    0.8
C     0.1    1.2    2.3
O     0.9    1.6    3.1
H     1.3    1.0    0.5
H     0.2    2.4    0.5
H    -0.5    0.8    0.2
N    -1.1    0.6    2.7
C    -1.6    0.2    4.0
C    -2.2    1.4    4.9
O    -2.7    1.0    6.0
H    -1.7    0.3    1.9
H    -2.5   -0.3    3.8
C    -0.7   -0.8    4.8
C     0.6   -0.3    5.5
C     0.6    0.8    6.5
N     0.3    2.1    6.0
C    -0.2    3.2    6.7
N    -1.0    2.8    7.8
N     0.2    4.3    6.3
H    -0.6   -1.6    4.2
H    -1.4   -1.1    5.7
H     1.3   -0.0    4.7
H     1.0   -1.2    6.0
H     1.5    0.8    7.1
H    -0.2    0.5    7.3
H     0.9    2.3    5.2
H    -1.4    3.7    8.2
H    -1.7    2.1    7.6
H    -0.3    5.1    6.8
N    -2.5    2.6    4.4
C    -1.8    3.4    3.4
H    -2.9    3.2    5.2
H    -2.1    4.5    3.5
H    -2.1    3.1    2.4
H    -0.7    3.4    3.5
