          35
 sphere cut out from bulk 
C    -3.4    0.8    0.8
C    -2.3    0.2    1.7
O    -1.2   -0.0    1.2
H    -4.3    1.1    1.3
H    -3.6    0.2   -0.1
H    -3.0    1.8    0.4
N    -2.7   -0.1    2.9
C    -1.9   -0.8    4.0
C    -0.7    0.0    4.5
O    -0.6    0.2    5.7
H    -3.6    0.2    3.2
H    -2.6   -0.8    4.8
C    -1.5   -2.2    3.5
C    -0.8   -3.1    4.5
C     0.8   -2.9    4.6
N     1.2   -2.1    5.7
C     2.5   -1.9    5.9
N     2.8   -0.9    6.8
N     3.4   -2.5    5.1
H    -0.9   -2.1    2.6
H    -2.5   -2.7    3.3
H    -1.0   -4.1    4.3
H    -1.2   -2.9    5.5
H     1.1   -2.5    3.6
H     1.2   -3.9    4.7
H     0.6   -1.3    6.0
H     3.8   -0.9    7.2
H     2.1   -0.8    7.6
H     4.4   -2.2    5.4
N     0.2    0.4    3.6
C     1.5    1.0    4.0
H     0.0    0.2    2.6
H     1.6    2.0    3.4
H     2.3    0.4    3.7
H     1.5    1.2    5.0
