          35
 sphere cut out from bulk 
C    -1.6    3.7    0.8
C    -1.6    2.8    2.0
O    -0.6    2.5    2.6
H    -1.0    3.2    0.0
H    -1.1    4.7    1.0
H    -2.6    3.9    0.3
N    -2.9    2.5    2.4
C    -3.3    1.8    3.6
C    -3.5    2.8    4.8
O    -4.6    3.3    4.9
H    -3.7    2.9    1.9
H    -4.3    1.4    3.4
C    -2.5    0.5    4.0
C    -2.6   -0.7    2.9
C    -1.6   -0.6    1.8
N    -0.2   -0.5    2.2
C     0.3   -1.5    3.0
N     0.1   -2.8    2.6
N     1.1   -1.1    4.0
H    -3.0    0.1    4.9
H    -1.5    0.6    4.2
H    -2.5   -1.6    3.4
H    -3.7   -0.7    2.5
H    -1.8    0.3    1.1
H    -1.8   -1.5    1.1
H     0.1    0.4    2.5
H     0.1   -3.5    3.4
H    -0.6   -3.0    1.9
H     1.6   -1.9    4.4
N    -2.5    3.1    5.7
C    -1.1    2.6    5.8
H    -2.8    3.8    6.3
H    -1.0    1.7    6.3
H    -0.6    2.5    4.8
H    -0.5    3.4    6.3
