          35
 sphere cut out from bulk 
C    -1.2    1.0    0.2
C    -1.2    0.9    1.7
O    -0.6    1.8    2.3
H    -0.3    0.6   -0.2
H    -2.1    0.5   -0.3
H    -1.3    2.1   -0.1
N    -1.9   -0.1    2.3
C    -2.6   -1.2    1.8
C    -4.0   -1.4    2.5
O    -4.1   -2.1    3.5
H    -1.8   -0.0    3.3
H    -2.7   -1.1    0.7
C    -1.8   -2.5    2.0
C    -0.4   -2.5    1.3
C     0.8   -2.1    2.3
N     2.1   -2.2    1.7
C     2.6   -1.2    0.9
N     3.6   -1.6    0.1
N     2.2    0.1    0.8
H    -2.4   -3.3    1.5
H    -1.7   -2.8    3.0
H    -0.3   -1.9    0.5
H    -0.1   -3.5    1.0
H     0.7   -2.7    3.2
H     0.6   -1.1    2.7
H     2.3   -3.1    1.4
H     4.1   -0.8   -0.4
H     4.3   -2.2    0.5
H     1.4    0.3    1.4
N    -5.0   -0.6    2.0
C    -4.9    0.4    0.9
H    -5.8   -0.7    2.6
H    -6.0    0.8    0.8
H    -4.6   -0.1   -0.0
H    -4.3    1.2    1.1
