          35
 sphere cut out from bulk 
C    -0.1    1.9    2.3
C     0.5    0.8    3.2
O     1.6    1.0    3.8
H    -0.9    1.5    1.7
H     0.7    2.2    1.6
H    -0.4    2.7    2.9
N    -0.3   -0.3    3.4
C     0.1   -1.4    4.3
C     0.9   -2.5    3.6
O     1.8   -3.1    4.3
H    -1.2   -0.3    3.0
H     0.9   -0.9    5.0
C    -1.0   -2.0    5.1
C    -1.7   -1.0    6.2
C    -2.7   -0.0    5.7
N    -3.8   -0.7    4.9
C    -3.8   -0.7    3.5
N    -4.4   -1.9    3.0
N    -3.2    0.1    2.7
H    -0.6   -2.8    5.7
H    -1.8   -2.4    4.5
H    -0.9   -0.5    6.7
H    -2.2   -1.7    6.9
H    -2.2    0.7    5.0
H    -3.2    0.5    6.5
H    -4.2   -1.5    5.3
H    -4.7   -1.7    2.0
H    -5.1   -2.3    3.5
H    -2.9    0.9    3.2
N     0.6   -3.0    2.4
C    -0.5   -2.5    1.5
H     1.1   -3.7    2.1
H    -0.7   -3.3    0.8
H    -0.3   -1.6    1.0
H    -1.5   -2.4    2.0
