          35
 sphere cut out from bulk 
C    -0.1   -1.1   -0.0
C     0.1   -1.2    1.5
O     1.0   -1.9    1.9
H    -1.2   -1.2   -0.2
H     0.4   -1.9   -0.5
H     0.2   -0.2   -0.4
N    -0.6   -0.4    2.3
C    -1.6    0.6    1.9
C    -0.9    1.8    1.1
O     0.2    2.2    1.4
H    -0.3   -0.4    3.2
H    -2.3    0.2    1.2
C    -2.4    1.2    3.1
C    -1.7    2.2    4.0
C    -0.5    1.8    4.7
N     0.1    2.8    5.7
C    -0.6    3.0    6.9
N    -0.0    4.0    7.6
N    -1.6    2.2    7.2
H    -2.7    0.3    3.7
H    -3.3    1.6    2.7
H    -2.5    2.5    4.7
H    -1.5    3.1    3.4
H     0.4    1.6    4.0
H    -0.6    0.9    5.3
H     0.5    3.6    5.2
H    -0.3    4.1    8.6
H     1.0    4.1    7.5
H    -1.8    2.4    8.2
N    -1.8    2.4    0.2
C    -1.4    3.6   -0.5
H    -2.7    2.0    0.1
H    -2.0    4.5   -0.3
H    -1.4    3.4   -1.6
H    -0.3    3.9   -0.2
