          35
 sphere cut out from bulk 
C     0.1    0.6    0.0
C    -0.6    0.8    1.4
O    -1.5    1.7    1.5
H    -0.7    0.5   -0.8
H     0.7   -0.3    0.0
H     0.7    1.5   -0.2
N    -0.3   -0.1    2.4
C    -0.7    0.1    3.8
C    -0.1   -1.1    4.6
O     0.1   -0.9    5.8
H     0.6   -0.6    2.2
H    -0.2    1.0    4.2
C    -2.2    0.2    4.0
C    -3.1   -0.9    3.4
C    -4.6   -0.6    3.5
N    -5.1   -0.4    4.9
C    -5.8   -1.4    5.6
N    -5.6   -2.7    5.1
N    -6.6   -1.1    6.6
H    -2.5    1.2    3.6
H    -2.4    0.3    5.1
H    -2.9   -1.9    3.9
H    -2.8   -1.0    2.3
H    -5.2   -1.4    3.0
H    -4.8    0.3    2.9
H    -5.2    0.6    5.2
H    -6.0   -3.3    5.8
H    -4.6   -2.9    5.0
H    -6.8   -0.1    6.7
N    -0.0   -2.3    4.0
C     0.3   -3.5    4.7
H    -0.5   -2.4    3.0
H    -0.5   -4.1    5.0
H     0.9   -3.2    5.5
H     1.0   -4.1    4.0
