          35
 sphere cut out from bulk 
C    -0.5   -0.9   -0.2
C    -0.3   -0.4    1.2
O     0.8   -0.0    1.6
H     0.1   -1.8   -0.3
H    -0.2   -0.1   -0.9
H    -1.6   -1.2   -0.4
N    -1.4   -0.4    2.0
C    -1.4    0.1    3.4
C    -0.9   -0.9    4.4
O    -1.7   -1.6    5.1
H    -2.3   -0.8    1.7
H    -0.7    0.9    3.4
C    -2.8    0.8    3.8
C    -4.0    0.0    4.1
C    -4.4   -1.0    3.1
N    -5.7   -1.7    3.4
C    -6.9   -1.4    2.7
N    -6.9   -0.2    2.1
N    -7.9   -2.2    2.7
H    -3.0    1.5    2.9
H    -2.5    1.5    4.6
H    -4.8    0.7    4.2
H    -3.9   -0.5    5.1
H    -3.6   -1.8    3.0
H    -4.5   -0.6    2.0
H    -5.7   -2.6    3.8
H    -7.9   -0.0    1.7
H    -6.6    0.6    2.6
H    -7.7   -3.1    3.0
N     0.4   -1.1    4.3
C     1.1   -2.2    5.1
H     0.9   -0.7    3.6
H     2.0   -1.8    5.5
H     1.3   -3.0    4.4
H     0.4   -2.5    5.8
