          35
 sphere cut out from bulk 
C     0.7    1.9    0.4
C     0.1    1.9    1.8
O     0.2    2.8    2.6
H     0.4    2.8   -0.1
H     0.5    1.1   -0.2
H     1.8    2.0    0.5
N    -0.6    0.8    2.1
C    -1.1    0.5    3.5
C    -1.2   -1.0    3.7
O    -0.7   -1.5    4.7
H    -0.5   -0.0    1.5
H    -0.3    0.8    4.2
C    -2.4    1.3    3.8
C    -2.5    1.6    5.3
C    -2.1    3.0    5.8
N    -0.7    3.3    5.4
C    -0.1    4.5    5.8
N     1.1    4.7    5.1
N    -0.5    5.3    6.8
H    -3.3    0.8    3.5
H    -2.4    2.3    3.3
H    -2.0    0.8    5.9
H    -3.6    1.5    5.6
H    -2.2    3.1    6.8
H    -2.8    3.8    5.3
H    -0.5    3.0    4.5
H     1.4    5.7    5.3
H     1.1    4.4    4.2
H    -1.3    4.9    7.2
N    -2.0   -1.7    2.8
C    -3.0   -1.3    1.9
H    -2.0   -2.7    3.1
H    -4.0   -1.3    2.3
H    -2.9   -2.0    1.0
H    -2.8   -0.3    1.5
