          35
 sphere cut out from bulk 
C     0.7    0.4   -0.2
C     0.7    0.1    1.2
O     0.7    1.1    2.1
H     1.5    1.0   -0.5
H    -0.3    0.9   -0.5
H     0.8   -0.6   -0.8
N     0.8   -1.2    1.6
C     0.7   -1.6    3.0
C     1.9   -2.5    3.4
O     1.8   -3.6    3.8
H     0.7   -1.9    0.9
H     0.8   -0.6    3.6
C    -0.6   -2.2    3.4
C    -1.1   -3.4    2.5
C    -1.8   -4.5    3.2
N    -0.8   -5.2    4.1
C    -1.2   -6.0    5.1
N    -0.1   -6.4    6.0
N    -2.4   -6.5    5.4
H    -1.4   -1.5    3.4
H    -0.6   -2.6    4.4
H    -0.2   -3.9    2.0
H    -1.7   -3.1    1.7
H    -2.2   -5.3    2.5
H    -2.6   -4.1    3.8
H     0.1   -4.8    4.2
H    -0.4   -7.2    6.6
H     0.8   -6.6    5.5
H    -3.1   -6.0    4.8
N     3.1   -1.9    3.4
C     3.5   -0.6    3.0
H     3.9   -2.6    3.6
H     4.4   -0.3    3.5
H     2.7    0.1    3.2
H     3.8   -0.5    1.9
