          35
 sphere cut out from bulk 
C    -0.1   -1.4    0.8
C    -0.0   -1.0    2.2
O     1.0   -1.1    2.9
H     0.8   -1.9    0.5
H    -0.3   -0.5    0.1
H    -0.9   -2.1    0.6
N    -1.2   -0.4    2.8
C    -2.5   -0.3    2.1
C    -2.6    0.7    1.0
O    -3.3    0.5   -0.0
H    -1.1   -0.2    3.8
H    -2.8   -1.3    1.7
C    -3.5    0.1    3.2
C    -4.9    0.4    2.7
C    -5.8    1.3    3.7
N    -5.1    2.5    4.1
C    -4.8    3.5    3.2
N    -4.0    4.5    3.9
N    -5.0    3.6    2.0
H    -3.1    1.0    3.7
H    -3.5   -0.7    4.0
H    -5.5   -0.6    2.6
H    -4.9    0.8    1.7
H    -6.0    0.7    4.6
H    -6.7    1.5    3.2
H    -4.6    2.5    4.9
H    -3.9    5.3    3.2
H    -4.3    4.8    4.8
H    -5.5    2.8    1.6
N    -1.9    1.8    1.1
C    -1.9    3.0    0.2
H    -1.3    1.9    2.0
H    -1.0    3.5    0.2
H    -2.8    3.6    0.6
H    -2.2    2.6   -0.8
