          35
 sphere cut out from bulk 
C     0.1    0.5   -0.1
C     0.1    0.1    1.3
O     0.9   -0.7    1.8
H    -0.0   -0.4   -0.8
H     1.2    0.9   -0.3
H    -0.6    1.3   -0.4
N    -0.9    0.7    2.0
C    -1.3    0.2    3.4
C    -2.6    0.8    3.8
O    -3.5    0.1    4.4
H    -1.7    1.1    1.5
H    -1.4   -0.9    3.4
C    -0.2    0.6    4.4
C    -0.5    0.2    5.9
C    -0.5   -1.2    6.3
N    -1.6   -1.9    5.7
C    -1.8   -3.3    5.9
N    -3.1   -3.7    5.5
N    -1.0   -4.1    6.5
H    -0.0    1.7    4.3
H     0.7    0.1    4.1
H    -1.4    0.7    6.2
H     0.3    0.7    6.5
H    -0.5   -1.3    7.4
H     0.4   -1.7    5.9
H    -2.5   -1.4    5.5
H    -3.1   -4.7    5.4
H    -3.4   -3.3    4.6
H    -0.2   -3.7    6.9
N    -2.9    2.1    3.5
C    -4.0    2.8    3.9
H    -2.1    2.6    3.2
H    -4.4    3.4    3.1
H    -3.9    3.4    4.8
H    -4.8    2.0    4.2
