          35
 sphere cut out from bulk 
C    -1.3    1.8    2.5
C    -0.2    0.8    2.9
O     0.9    0.9    2.6
H    -1.4    2.6    3.3
H    -2.3    1.4    2.4
H    -1.0    2.3    1.6
N    -0.7   -0.2    3.7
C     0.3   -1.1    4.4
C     1.4   -1.6    3.6
O     2.6   -1.7    4.1
H    -1.6   -0.1    4.2
H     0.8   -0.5    5.2
C    -0.4   -2.3    5.1
C    -1.7   -2.0    5.8
C    -1.6   -0.9    6.9
N    -2.9   -0.3    7.3
C    -3.6    0.5    6.5
N    -4.8    0.8    7.0
N    -3.1    0.8    5.3
H     0.3   -2.8    5.7
H    -0.7   -3.1    4.3
H    -2.1   -2.9    6.3
H    -2.5   -1.7    5.1
H    -1.0   -0.0    6.5
H    -1.1   -1.2    7.8
H    -3.4   -0.9    8.0
H    -5.3    1.5    6.4
H    -4.8    1.1    8.0
H    -3.8    1.5    4.8
N     1.2   -2.2    2.3
C     0.1   -2.1    1.5
H     2.1   -2.5    1.9
H    -0.9   -2.3    2.0
H     0.1   -3.0    0.8
H    -0.0   -1.2    0.9
