          35
 sphere cut out from bulk 
C    -0.4    0.2   -0.1
C    -0.3   -0.1    1.4
O     0.8   -0.3    1.9
H     0.4   -0.3   -0.7
H    -0.2    1.3   -0.2
H    -1.4   -0.0   -0.5
N    -1.5   -0.2    2.0
C    -1.7   -0.1    3.5
C    -1.1    1.2    4.0
O    -0.5    2.0    3.2
H    -2.3    0.1    1.5
H    -2.8    0.0    3.6
C    -1.4   -1.5    4.2
C     0.0   -2.1    4.2
C     1.1   -1.5    5.2
N     1.5   -0.2    4.8
C     1.8    0.8    5.7
N     1.9    0.5    7.0
N     2.0    2.1    5.4
H    -2.0   -2.2    3.7
H    -1.7   -1.4    5.2
H     0.5   -2.1    3.2
H    -0.1   -3.1    4.5
H     1.9   -2.2    5.2
H     0.6   -1.4    6.2
H     1.4    0.0    3.8
H     2.3    1.3    7.5
H     2.4   -0.4    7.2
H     1.8    2.3    4.4
N    -1.2    1.6    5.3
C    -1.8    0.9    6.4
H    -0.7    2.4    5.5
H    -2.1    1.6    7.2
H    -1.1    0.1    6.9
H    -2.7    0.3    6.1
