          35
 sphere cut out from bulk 
C    -0.6    3.4    2.2
C    -0.2    2.0    2.1
O     0.9    1.6    2.7
H    -0.6    3.9    1.2
H     0.0    4.0    2.9
H    -1.7    3.5    2.5
N    -0.9    1.1    1.4
C    -2.1    1.4    0.6
C    -3.4    1.4    1.3
O    -4.5    1.7    0.8
H    -0.5    0.2    1.3
H    -2.0    2.4    0.2
C    -2.2    0.5   -0.7
C    -2.4   -1.0   -0.3
C    -2.4   -1.9   -1.6
N    -1.1   -1.9   -2.2
C    -1.0   -2.5   -3.5
N     0.4   -2.6   -3.9
N    -1.9   -2.9   -4.3
H    -1.2    0.6   -1.2
H    -3.0    0.8   -1.3
H    -3.4   -1.1    0.2
H    -1.6   -1.4    0.4
H    -3.2   -1.5   -2.3
H    -2.8   -2.9   -1.3
H    -0.4   -2.1   -1.6
H     0.4   -2.9   -4.8
H     0.9   -1.8   -3.7
H    -2.8   -2.9   -3.8
N    -3.4    0.9    2.6
C    -4.5    0.8    3.5
H    -2.5    0.7    3.0
H    -4.4    1.5    4.4
H    -4.7   -0.2    3.8
H    -5.4    1.1    2.9
