          35
 sphere cut out from bulk 
C    -0.4    1.6   -1.0
C    -0.2    0.4   -0.0
O     0.9   -0.1    0.1
H    -0.6    2.5   -0.4
H    -1.3    1.4   -1.6
H     0.5    1.7   -1.6
N    -1.3    0.0    0.8
C    -2.5    0.7    0.9
C    -2.5    2.1    1.6
O    -3.2    3.0    1.2
H    -1.0   -0.7    1.4
H    -2.9    0.9   -0.1
C    -3.5   -0.2    1.6
C    -3.9   -1.5    0.8
C    -4.9   -2.4    1.6
N    -4.5   -2.8    2.9
C    -3.5   -3.7    3.2
N    -3.1   -3.7    4.5
N    -2.8   -4.4    2.3
H    -4.5    0.4    1.8
H    -3.1   -0.5    2.6
H    -3.0   -2.0    0.6
H    -4.3   -1.2   -0.1
H    -5.1   -3.3    1.0
H    -5.9   -1.9    1.7
H    -4.7   -2.1    3.6
H    -2.5   -4.5    4.7
H    -3.9   -3.8    5.2
H    -3.1   -4.2    1.4
N    -1.6    2.3    2.7
C    -0.8    1.4    3.4
H    -1.7    3.3    3.0
H     0.1    1.2    2.8
H    -1.3    0.5    3.6
H    -0.5    1.9    4.3
