          35
 sphere cut out from bulk 
C     0.2    0.5    2.7
C     0.2   -0.4    1.4
O     1.2   -1.1    1.1
H     0.0    1.5    2.4
H     1.2    0.4    3.1
H    -0.6    0.2    3.4
N    -0.9   -0.3    0.6
C    -2.2    0.3    0.9
C    -3.1   -0.2    2.0
O    -3.9    0.6    2.5
H    -0.9   -0.9   -0.2
H    -1.9    1.4    1.3
C    -3.0    0.6   -0.4
C    -3.5   -0.7   -1.1
C    -4.8   -1.2   -0.6
N    -5.9   -0.2   -0.7
C    -7.0   -0.1    0.3
N    -6.6   -0.3    1.6
N    -8.1    0.1   -0.2
H    -2.3    1.1   -1.1
H    -3.8    1.2   -0.2
H    -2.8   -1.5   -1.1
H    -3.7   -0.4   -2.2
H    -4.7   -1.5    0.5
H    -5.1   -2.1   -1.1
H    -6.3   -0.1   -1.6
H    -7.3   -0.1    2.2
H    -5.7    0.1    1.9
H    -8.8    0.3    0.6
N    -3.0   -1.5    2.5
C    -2.2   -2.6    1.9
H    -3.6   -1.7    3.2
H    -2.6   -3.5    2.4
H    -1.2   -2.6    2.2
H    -2.4   -2.8    0.9
