          35
 sphere cut out from bulk 
C     0.5    1.4    0.7
C     0.6   -0.1    0.9
O     1.7   -0.6    1.3
H     1.4    1.9    0.9
H    -0.2    1.8    1.4
H     0.1    1.6   -0.3
N    -0.5   -0.9    0.7
C    -1.8   -0.4    0.3
C    -2.6    0.2    1.4
O    -3.4    1.2    1.2
H    -0.3   -1.9    0.8
H    -1.7    0.4   -0.4
C    -2.5   -1.6   -0.4
C    -3.9   -1.2   -1.0
C    -3.9   -0.1   -2.1
N    -3.1   -0.5   -3.3
C    -1.8   -0.1   -3.6
N    -1.4   -0.7   -4.8
N    -1.2    0.6   -2.7
H    -2.7   -2.4    0.3
H    -1.9   -1.9   -1.2
H    -4.6   -0.8   -0.2
H    -4.4   -2.1   -1.4
H    -3.4    0.8   -1.7
H    -4.9    0.1   -2.4
H    -3.4   -1.3   -3.8
H    -0.5   -0.3   -5.0
H    -2.0   -0.7   -5.5
H    -0.3    0.9   -3.1
N    -2.6   -0.4    2.7
C    -1.9   -1.5    3.2
H    -3.2    0.1    3.3
H    -2.4   -1.8    4.2
H    -0.9   -1.4    3.3
H    -2.1   -2.4    2.5
