          35
 sphere cut out from bulk 
C    -0.9   -1.6    1.7
C    -0.9   -0.4    2.6
O    -0.0   -0.2    3.5
H    -1.1   -1.4    0.7
H    -1.6   -2.3    2.0
H     0.1   -2.1    1.8
N    -1.9    0.6    2.5
C    -2.9    0.7    1.5
C    -3.8   -0.6    1.3
O    -3.9   -1.2    0.2
H    -1.7    1.3    3.1
H    -3.6    1.4    1.9
C    -2.5    1.2    0.1
C    -1.7    2.5    0.1
C    -1.3    3.0   -1.3
N    -2.5    3.4   -2.1
C    -2.8    2.8   -3.3
N    -2.4    1.5   -3.5
N    -3.4    3.4   -4.3
H    -3.4    1.3   -0.5
H    -1.9    0.4   -0.4
H    -0.8    2.4    0.7
H    -2.3    3.3    0.6
H    -0.8    2.2   -1.8
H    -0.6    3.9   -1.2
H    -2.8    4.3   -2.0
H    -2.6    0.9   -2.7
H    -2.8    1.1   -4.3
H    -3.5    4.4   -4.1
N    -4.4   -1.1    2.5
C    -4.3   -0.5    3.8
H    -4.9   -1.9    2.3
H    -5.2   -1.0    4.4
H    -4.5    0.6    3.8
H    -3.4   -0.8    4.3
