          35
 sphere cut out from bulk 
C    -2.7    1.3   -0.3
C    -1.9    1.3    1.0
O    -0.7    1.6    1.0
H    -2.7    2.4   -0.7
H    -3.7    1.0   -0.2
H    -2.1    0.7   -1.1
N    -2.6    0.9    2.1
C    -2.0    0.9    3.4
C    -2.3   -0.4    4.2
O    -2.3   -0.5    5.4
H    -3.6    0.8    2.0
H    -0.9    1.1    3.3
C    -2.6    2.1    4.3
C    -2.0    3.5    3.9
C    -0.7    3.8    4.6
N     0.4    2.8    4.5
C     1.5    2.9    3.8
N     1.2    3.4    2.5
N     2.7    2.7    4.3
H    -2.4    1.9    5.3
H    -3.7    2.1    4.1
H    -2.7    4.3    4.1
H    -1.8    3.5    2.8
H    -0.9    4.0    5.7
H    -0.3    4.8    4.2
H     0.7    2.4    5.5
H     0.5    2.9    2.0
H     2.1    3.4    1.9
H     3.4    2.7    3.6
N    -2.3   -1.5    3.4
C    -2.4   -2.9    3.9
H    -2.2   -1.4    2.4
H    -3.2   -3.4    3.4
H    -2.6   -2.8    5.0
H    -1.4   -3.4    3.7
