          35
 sphere cut out from bulk 
C    -0.3   -0.6    0.9
C    -0.8   -0.6    2.4
O    -0.4   -1.4    3.2
H     0.4    0.3    0.8
H    -1.1   -0.5    0.2
H     0.3   -1.5    0.8
N    -1.7    0.4    2.8
C    -2.5    1.4    2.0
C    -3.6    0.8    1.2
O    -3.5   -0.2    0.5
H    -2.0    0.3    3.7
H    -3.0    2.0    2.8
C    -1.7    2.4    1.1
C    -2.4    3.6    0.8
C    -2.6    4.6    1.9
N    -3.7    5.6    1.8
C    -5.0    5.2    2.1
N    -5.9    6.3    1.9
N    -5.3    4.1    2.6
H    -1.4    1.8    0.2
H    -0.7    2.6    1.6
H    -3.4    3.4    0.4
H    -1.9    4.2   -0.1
H    -1.7    5.2    2.1
H    -2.8    4.0    2.9
H    -3.6    6.3    1.1
H    -6.8    6.1    2.2
H    -5.5    7.2    2.1
H    -6.2    4.1    2.9
N    -4.8    1.4    1.4
C    -6.0    1.0    0.6
H    -4.9    2.2    1.9
H    -6.4    1.8    0.1
H    -6.8    0.6    1.3
H    -5.8    0.2   -0.0
