          35
 sphere cut out from bulk 
C    -0.5   -0.1   -0.6
C    -0.5   -0.6    0.9
O     0.5   -1.0    1.5
H    -0.9   -0.8   -1.2
H     0.6    0.1   -0.8
H    -1.0    0.9   -0.7
N    -1.8   -0.6    1.5
C    -3.1   -0.1    1.1
C    -3.5   -0.7   -0.3
O    -3.7   -0.1   -1.3
H    -1.7   -0.9    2.5
H    -3.8   -0.5    1.8
C    -3.2    1.4    1.0
C    -4.7    1.8    1.3
C    -5.1    1.6    2.8
N    -6.5    1.3    2.9
C    -6.9   -0.1    2.8
N    -8.3   -0.3    2.9
N    -6.0   -1.0    2.6
H    -2.9    1.8    0.1
H    -2.6    1.8    1.8
H    -5.3    1.2    0.6
H    -4.9    2.9    1.0
H    -5.0    2.6    3.3
H    -4.5    0.9    3.2
H    -7.2    2.0    2.8
H    -8.6   -1.1    2.4
H    -8.9    0.5    2.8
H    -6.5   -1.9    2.6
N    -3.6   -2.1   -0.3
C    -3.4   -3.0    0.8
H    -3.9   -2.5   -1.2
H    -2.4   -3.3    1.0
H    -3.9   -2.7    1.7
H    -3.9   -4.0    0.5
