          35
 sphere cut out from bulk 
C     1.0    1.5    0.5
C    -0.3    1.9    1.1
O    -0.8    3.0    1.0
H     1.4    0.5    0.8
H     1.8    2.2    0.8
H     0.9    1.6   -0.6
N    -1.0    0.9    1.7
C    -2.2    1.2    2.5
C    -2.1    0.4    3.8
O    -1.4   -0.6    3.9
H    -0.5    0.0    2.0
H    -2.2    2.2    2.7
C    -3.5    0.8    1.8
C    -3.6    1.4    0.4
C    -2.9    0.6   -0.8
N    -2.1    1.5   -1.6
C    -1.3    1.1   -2.6
N    -1.8    0.0   -3.4
N    -0.1    1.7   -2.8
H    -4.3    1.0    2.4
H    -3.5   -0.3    1.7
H    -3.3    2.4    0.4
H    -4.7    1.5    0.1
H    -3.7    0.2   -1.4
H    -2.3   -0.2   -0.3
H    -1.7    2.3   -1.1
H    -1.1   -0.5   -3.8
H    -2.5   -0.5   -3.0
H     0.3    1.3   -3.6
N    -2.8    0.8    4.9
C    -3.6    2.0    5.0
H    -2.7    0.2    5.7
H    -4.7    1.8    4.7
H    -3.3    2.8    4.3
H    -3.6    2.4    6.0
