          35
 sphere cut out from bulk 
C    -1.3    2.2   -0.0
C    -1.5    1.2    1.1
O    -0.8    1.1    2.1
H    -1.4    3.2    0.4
H    -2.0    2.1   -0.8
H    -0.3    2.1   -0.4
N    -2.5    0.3    0.8
C    -2.8   -0.9    1.7
C    -3.0   -2.1    0.8
O    -3.5   -1.9   -0.3
H    -3.0    0.2   -0.1
H    -1.9   -1.0    2.3
C    -4.0   -0.7    2.7
C    -3.8    0.4    3.7
C    -5.0    0.6    4.6
N    -5.3   -0.6    5.4
C    -4.6   -0.9    6.6
N    -5.2   -2.0    7.2
N    -3.6   -0.3    7.1
H    -4.2   -1.6    3.2
H    -4.9   -0.5    2.0
H    -3.6    1.4    3.2
H    -2.9    0.2    4.3
H    -5.9    0.8    4.0
H    -4.8    1.5    5.3
H    -6.2   -0.9    5.4
H    -4.6   -2.3    8.0
H    -5.4   -2.8    6.6
H    -3.3    0.5    6.6
N    -2.7   -3.3    1.3
C    -2.9   -4.5    0.6
H    -2.2   -3.3    2.2
H    -3.4   -4.3   -0.3
H    -3.6   -5.2    1.2
H    -1.9   -5.1    0.5
