          35
 sphere cut out from bulk 
C    -0.1   -1.0   -0.1
C     0.1   -0.4    1.3
O     1.2   -0.3    1.8
H    -0.5   -0.3   -0.8
H    -0.8   -1.8   -0.1
H     0.9   -1.4   -0.4
N    -1.0    0.1    1.9
C    -2.4    0.1    1.4
C    -2.7    1.1    0.3
O    -3.7    0.9   -0.4
H    -0.9    0.5    2.8
H    -2.6   -0.8    0.9
C    -3.4    0.2    2.5
C    -3.4    1.4    3.4
C    -4.2    2.6    2.8
N    -5.6    2.3    2.6
C    -6.4    2.9    1.6
N    -5.7    3.0    0.4
N    -7.6    3.2    1.7
H    -3.2   -0.7    3.2
H    -4.4    0.1    2.1
H    -2.4    1.8    3.7
H    -3.9    1.2    4.4
H    -3.8    3.0    1.9
H    -4.1    3.5    3.5
H    -6.1    2.3    3.5
H    -6.4    3.3   -0.3
H    -5.1    2.2    0.1
H    -7.9    3.2    2.7
N    -1.9    2.2    0.1
C    -0.8    2.8    0.9
H    -2.3    2.8   -0.7
H     0.1    2.3    0.8
H    -1.1    2.9    1.9
H    -0.7    3.9    0.5
