          35
 sphere cut out from bulk 
C     0.9   -1.4    0.3
C     0.4   -0.4    1.3
O     1.1    0.4    1.9
H     0.1   -2.0   -0.2
H     1.6   -2.1    0.8
H     1.5   -0.9   -0.5
N    -1.0   -0.3    1.4
C    -1.7    0.7    2.2
C    -2.2   -0.1    3.5
O    -3.2   -0.9    3.4
H    -1.6   -1.0    0.9
H    -0.9    1.4    2.5
C    -2.9    1.3    1.5
C    -2.4    2.1    0.3
C    -3.6    2.7   -0.5
N    -4.5    1.8   -1.1
C    -4.2    1.0   -2.2
N    -5.1    0.0   -2.5
N    -3.0    1.2   -2.8
H    -3.4    2.0    2.2
H    -3.6    0.6    1.2
H    -1.8    1.5   -0.4
H    -1.8    3.0    0.6
H    -3.2    3.3   -1.4
H    -4.2    3.4    0.1
H    -5.1    1.3   -0.4
H    -5.0   -0.4   -3.3
H    -6.1    0.3   -2.4
H    -3.0    0.6   -3.6
N    -1.6    0.1    4.7
C    -0.4    0.9    4.9
H    -1.9   -0.5    5.4
H     0.3    0.8    4.1
H     0.1    0.5    5.8
H    -0.6    1.9    5.1
