          35
 sphere cut out from bulk 
C    -4.3    0.1    0.4
C    -3.0    0.2    1.1
O    -1.9   -0.2    0.6
H    -4.3    0.8   -0.5
H    -5.2    0.3    1.0
H    -4.4   -0.9   -0.0
N    -3.0    0.7    2.4
C    -1.8    1.0    3.2
C    -1.4   -0.0    4.2
O    -0.4    0.2    4.9
H    -3.9    1.1    2.7
H    -1.0    1.0    2.4
C    -2.0    2.4    3.8
C    -1.6    3.5    2.8
C    -0.1    3.7    2.6
N     0.6    4.0    3.8
C     1.8    3.4    4.2
N     1.8    2.0    4.0
N     2.8    4.2    4.6
H    -1.3    2.5    4.7
H    -3.0    2.5    4.2
H    -2.0    4.5    3.2
H    -2.1    3.4    1.9
H     0.1    4.4    1.8
H     0.3    2.7    2.2
H     0.7    5.0    3.9
H     1.0    1.5    4.3
H     2.7    1.6    4.3
H     3.5    3.6    5.0
N    -2.2   -1.1    4.3
C    -1.9   -2.2    5.2
H    -3.0   -1.2    3.7
H    -1.6   -3.1    4.7
H    -2.8   -2.5    5.9
H    -1.1   -1.9    5.9
