          35
 sphere cut out from bulk 
C     0.1   -1.4    0.3
C    -0.3   -0.4    1.4
O     0.1    0.8    1.3
H     1.2   -1.5    0.3
H    -0.2   -1.1   -0.7
H    -0.2   -2.4    0.5
N    -1.1   -0.9    2.4
C    -1.5   -0.2    3.6
C    -3.0    0.1    3.6
O    -3.6    0.0    4.7
H    -1.3   -1.9    2.3
H    -1.5   -1.0    4.4
C    -0.7    0.9    4.2
C    -1.0    2.4    3.7
C    -0.3    3.4    4.5
N    -0.8    3.4    5.9
C    -0.2    4.2    6.9
N    -0.9    4.1    8.1
N     0.9    4.9    6.8
H     0.4    0.7    4.0
H    -0.8    0.9    5.3
H    -2.1    2.5    3.8
H    -0.8    2.5    2.7
H    -0.5    4.4    4.1
H     0.8    3.2    4.5
H    -1.8    3.3    6.0
H    -1.2    3.2    8.4
H    -0.3    4.6    8.8
H     1.2    4.9    5.8
N    -3.7    0.5    2.5
C    -3.2    0.9    1.2
H    -4.7    0.7    2.7
H    -2.2    1.3    1.2
H    -3.9    1.6    0.8
H    -3.2    0.0    0.5
