          35
 sphere cut out from bulk 
C    -1.2   -1.1   -0.0
C    -0.7   -0.1    1.0
O     0.3    0.5    0.9
H    -1.0   -2.1    0.4
H    -0.6   -1.0   -0.9
H    -2.2   -1.0   -0.3
N    -1.5    0.1    2.1
C    -2.9   -0.1    2.4
C    -3.4   -1.6    2.0
O    -2.7   -2.5    2.3
H    -1.0    0.8    2.8
H    -3.0   -0.2    3.5
C    -3.8    1.1    2.0
C    -3.9    1.5    0.5
C    -2.6    2.2   -0.2
N    -1.7    2.9    0.7
C    -2.1    4.0    1.5
N    -3.3    4.6    1.2
N    -1.4    4.4    2.5
H    -3.4    1.9    2.5
H    -4.8    0.9    2.4
H    -4.7    2.2    0.5
H    -4.2    0.7   -0.1
H    -3.0    2.8   -1.0
H    -2.0    1.4   -0.7
H    -0.8    2.5    0.9
H    -3.4    5.4    1.8
H    -3.5    4.8    0.2
H    -0.6    3.8    2.7
N    -4.6   -1.6    1.4
C    -5.2   -2.9    1.1
H    -5.1   -0.8    1.2
H    -6.2   -3.0    1.6
H    -4.5   -3.7    1.4
H    -5.4   -3.0    0.0
