          35
 sphere cut out from bulk 
C    -2.8    0.1   -0.5
C    -1.9   -0.3    0.6
O    -1.0   -1.2    0.3
H    -3.4    1.1   -0.2
H    -3.5   -0.7   -0.7
H    -2.2    0.3   -1.4
N    -2.1    0.0    1.9
C    -2.7    1.2    2.5
C    -4.2    1.3    2.2
O    -4.8    2.4    2.1
H    -1.4   -0.4    2.5
H    -2.8    0.9    3.6
C    -1.9    2.5    2.5
C    -1.7    3.2    1.1
C    -2.6    4.4    0.9
N    -2.8    4.9   -0.4
C    -3.5    4.2   -1.4
N    -4.5    3.3   -0.9
N    -3.5    4.4   -2.7
H    -0.9    2.3    2.9
H    -2.4    3.2    3.2
H    -2.0    2.5    0.3
H    -0.7    3.4    0.9
H    -2.1    5.3    1.5
H    -3.6    4.3    1.4
H    -2.0    5.4   -0.8
H    -5.2    3.1   -1.6
H    -4.8    3.4    0.1
H    -2.7    5.1   -2.9
N    -4.9    0.1    2.0
C    -6.3    0.1    1.7
H    -4.3   -0.7    2.0
H    -6.8   -0.7    2.3
H    -6.4   -0.2    0.6
H    -6.7    1.0    1.9
