          35
 sphere cut out from bulk 
C     0.1    0.6    0.8
C    -0.1    0.9    2.3
O     0.8    1.3    3.0
H     0.2   -0.5    0.6
H     1.1    1.0    0.5
H    -0.7    0.9    0.1
N    -1.3    0.6    2.8
C    -2.6    0.2    2.2
C    -2.5   -1.0    1.2
O    -2.8   -0.9    0.0
H    -1.4    0.9    3.8
H    -3.2   -0.1    3.0
C    -3.3    1.4    1.5
C    -4.8    1.3    1.3
C    -5.6    0.9    2.6
N    -5.3    1.8    3.7
C    -4.4    1.4    4.7
N    -4.5    0.0    5.1
N    -3.5    2.1    5.3
H    -2.8    1.6    0.5
H    -3.1    2.3    2.1
H    -5.0    0.6    0.5
H    -5.2    2.3    0.9
H    -5.5   -0.1    2.8
H    -6.7    1.0    2.3
H    -5.2    2.8    3.5
H    -5.5   -0.3    5.2
H    -4.0   -0.2    5.9
H    -3.4    3.0    4.9
N    -2.1   -2.1    1.8
C    -1.7   -2.4    3.2
H    -2.0   -2.9    1.1
H    -2.4   -1.9    3.9
H    -0.7   -2.0    3.4
H    -1.8   -3.5    3.3
