          35
 sphere cut out from bulk 
C    -0.1   -0.6    0.3
C    -0.2   -0.4    1.8
O     0.8   -0.4    2.5
H    -0.6   -1.6   -0.0
H     0.9   -0.6   -0.0
H    -0.7    0.2   -0.3
N    -1.4   -0.2    2.4
C    -2.8   -0.3    1.8
C    -3.0   -1.7    1.2
O    -2.9   -2.7    1.9
H    -1.3   -0.3    3.4
H    -3.4   -0.4    2.7
C    -3.1    1.0    1.1
C    -3.1    2.2    2.0
C    -3.5    3.5    1.3
N    -3.4    4.6    2.2
C    -3.8    5.9    1.8
N    -3.5    6.9    2.8
N    -4.4    6.2    0.7
H    -4.2    0.9    0.7
H    -2.5    1.2    0.2
H    -2.0    2.3    2.4
H    -3.7    2.1    2.9
H    -4.5    3.4    1.0
H    -2.9    3.6    0.4
H    -2.6    4.7    2.8
H    -4.0    7.8    2.5
H    -3.7    6.6    3.7
H    -4.5    5.5    0.1
N    -3.5   -1.9   -0.1
C    -3.6   -0.9   -1.3
H    -3.6   -2.8   -0.3
H    -4.4   -0.2   -1.2
H    -2.6   -0.4   -1.4
H    -3.7   -1.6   -2.2
