          35
 sphere cut out from bulk 
C    -0.9    3.9    1.5
C    -1.6    2.8    2.3
O    -2.7    2.9    2.8
H    -0.8    4.8    2.1
H    -1.5    4.1    0.6
H     0.1    3.6    1.2
N    -0.8    1.6    2.4
C    -1.3    0.5    3.1
C    -0.1   -0.3    3.7
O     0.9   -0.3    3.0
H     0.1    1.5    2.0
H    -2.0    0.8    3.9
C    -2.1   -0.5    2.2
C    -3.0   -1.6    2.9
C    -4.2   -1.1    3.7
N    -5.2   -0.4    2.8
C    -5.9    0.7    3.2
N    -5.1    1.7    3.9
N    -7.2    0.7    3.0
H    -1.4   -0.9    1.5
H    -2.9    0.2    1.6
H    -2.3   -2.2    3.5
H    -3.3   -2.3    2.1
H    -3.9   -0.3    4.4
H    -4.6   -1.9    4.2
H    -5.8   -1.1    2.4
H    -5.7    2.5    4.1
H    -4.2    1.9    3.5
H    -7.6    1.6    3.2
N    -0.2   -0.8    4.9
C    -1.2   -0.7    5.9
H     0.7   -1.3    5.2
H    -0.8   -0.8    6.9
H    -2.0   -1.5    5.8
H    -1.7    0.3    5.9
