          35
 sphere cut out from bulk 
C    -0.7    2.0    0.1
C    -0.1    0.9    0.8
O     1.2    0.9    1.0
H    -1.6    2.5    0.7
H    -1.2    1.8   -0.8
H     0.0    2.8   -0.0
N    -0.8   -0.1    1.2
C    -2.2   -0.5    0.9
C    -3.0   -1.0    2.1
O    -4.0   -0.5    2.5
H    -0.3   -0.9    1.8
H    -2.7    0.4    0.6
C    -2.4   -1.5   -0.3
C    -1.4   -1.4   -1.4
C    -0.2   -2.4   -1.4
N     0.8   -2.3   -0.4
C     0.8   -2.6    0.9
N     1.7   -2.0    1.7
N    -0.1   -3.5    1.4
H    -3.4   -1.4   -0.7
H    -2.3   -2.5    0.1
H    -0.9   -0.4   -1.5
H    -1.9   -1.6   -2.4
H     0.3   -2.4   -2.4
H    -0.6   -3.5   -1.3
H     1.6   -1.6   -0.6
H     1.7   -2.3    2.6
H     1.9   -1.0    1.6
H    -0.6   -4.0    0.7
N    -2.4   -2.1    2.8
C    -3.0   -2.7    3.9
H    -1.6   -2.6    2.3
H    -3.1   -1.9    4.7
H    -2.3   -3.5    4.3
H    -4.0   -3.1    3.7
