          35
 sphere cut out from bulk 
C     0.2   -0.0    0.2
C     0.0    0.0    1.7
O     1.0    0.1    2.5
H     0.7    0.9   -0.1
H    -0.8   -0.0   -0.3
H     0.7   -0.9   -0.1
N    -1.2    0.0    2.2
C    -1.5    0.1    3.6
C    -1.5   -1.4    4.2
O    -2.5   -2.0    4.4
H    -2.0   -0.1    1.6
H    -0.7    0.7    4.1
C    -2.9    0.7    3.9
C    -3.1    1.1    5.4
C    -2.3    2.3    5.8
N    -2.2    2.5    7.2
C    -1.2    1.7    7.9
N    -1.1    1.9    9.2
N    -0.3    1.0    7.2
H    -3.7    0.0    3.6
H    -3.0    1.6    3.3
H    -2.8    0.2    6.0
H    -4.2    1.2    5.5
H    -2.9    3.2    5.4
H    -1.3    2.3    5.4
H    -3.0    2.6    7.8
H    -0.8    1.1    9.8
H    -2.0    2.2    9.7
H     0.4    0.7    7.7
N    -0.2   -1.8    4.5
C     0.1   -3.1    5.0
H     0.5   -1.1    4.2
H     0.7   -3.0    5.9
H     0.7   -3.7    4.2
H    -0.8   -3.6    5.1
