          35
 sphere cut out from bulk 
C     1.1    0.6    3.7
C    -0.1   -0.2    4.2
O     0.0   -0.9    5.2
H     1.5    1.2    4.5
H     0.9    1.2    2.8
H     1.9   -0.2    3.4
N    -1.2   -0.0    3.6
C    -2.5   -0.7    4.0
C    -2.6   -2.1    3.4
O    -3.2   -2.4    2.4
H    -1.2    0.5    2.7
H    -2.4   -0.8    5.1
C    -3.7    0.2    3.6
C    -5.0   -0.3    4.2
C    -5.1   -0.4    5.7
N    -4.6    0.8    6.5
C    -5.2    2.0    6.3
N    -6.6    2.0    6.1
N    -4.6    3.2    6.4
H    -3.8    0.2    2.5
H    -3.5    1.2    3.9
H    -5.3   -1.3    3.8
H    -5.8    0.4    3.9
H    -4.4   -1.2    6.1
H    -6.1   -0.7    6.0
H    -3.6    0.9    6.6
H    -7.1    1.3    6.6
H    -7.0    2.9    6.1
H    -3.6    3.1    6.5
N    -1.8   -3.0    4.1
C    -1.6   -4.4    3.7
H    -1.1   -2.6    4.8
H    -0.7   -4.5    3.1
H    -2.4   -4.6    3.0
H    -1.6   -5.1    4.5
