          35
 sphere cut out from bulk 
C     0.0   -0.9   -0.4
C    -0.1   -0.4    1.0
O     0.8   -0.5    1.9
H     0.9   -0.5   -0.8
H    -0.8   -0.7   -1.0
H     0.2   -2.0   -0.3
N    -1.3    0.2    1.3
C    -1.6    0.6    2.7
C    -3.1    0.6    2.9
O    -3.6   -0.1    3.8
H    -2.0    0.1    0.7
H    -1.3   -0.2    3.4
C    -0.9    1.8    3.2
C    -1.1    2.2    4.6
C    -2.4    3.1    4.8
N    -2.5    3.5    6.2
C    -3.6    4.3    6.6
N    -3.5    4.7    8.0
N    -4.6    4.6    6.0
H    -1.1    2.7    2.5
H     0.2    1.6    3.0
H    -0.2    2.8    5.0
H    -1.2    1.4    5.3
H    -3.3    2.6    4.6
H    -2.3    4.0    4.2
H    -1.6    3.8    6.7
H    -4.3    5.1    8.3
H    -3.1    4.0    8.6
H    -4.5    4.4    5.0
N    -3.9    1.3    2.1
C    -3.5    2.5    1.2
H    -4.9    1.3    2.3
H    -2.5    2.3    0.8
H    -3.5    3.4    1.8
H    -4.2    2.6    0.4
