          35
 sphere cut out from bulk 
C    -2.4    2.8    2.7
C    -1.2    1.8    2.6
O    -0.1    2.1    2.8
H    -3.0    2.9    1.8
H    -2.0    3.8    2.9
H    -3.1    2.5    3.5
N    -1.6    0.5    2.2
C    -2.9   -0.1    2.0
C    -3.2   -0.9    3.2
O    -2.5   -1.7    3.7
H    -0.8   -0.1    2.2
H    -3.6    0.7    1.8
C    -2.9   -1.0    0.8
C    -2.5   -0.4   -0.6
C    -3.3    0.8   -1.0
N    -3.0    1.3   -2.3
C    -3.5    0.7   -3.5
N    -3.0    1.2   -4.7
N    -4.4   -0.3   -3.5
H    -3.9   -1.4    0.7
H    -2.2   -1.9    1.0
H    -2.5   -1.1   -1.3
H    -1.4   -0.1   -0.5
H    -3.1    1.7   -0.3
H    -4.4    0.6   -0.9
H    -2.1    1.7   -2.5
H    -3.5    0.8   -5.5
H    -2.9    2.2   -4.7
H    -4.6   -0.7   -2.6
N    -4.5   -0.6    3.8
C    -5.0   -1.3    4.9
H    -5.0    0.1    3.3
H    -4.3   -2.0    5.3
H    -6.0   -1.8    4.7
H    -5.2   -0.6    5.8
