          35
 sphere cut out from bulk 
C    -1.4    1.9    0.4
C    -0.5    1.2    1.4
O     0.6    1.7    1.7
H    -0.9    2.8    0.0
H    -2.4    2.2    0.8
H    -1.6    1.2   -0.5
N    -0.9    0.1    2.0
C    -2.2   -0.7    1.7
C    -2.7   -1.2    3.0
O    -2.3   -2.3    3.5
H    -0.3   -0.3    2.6
H    -2.9    0.0    1.3
C    -1.9   -1.8    0.7
C    -3.2   -2.3   -0.1
C    -4.2   -2.9    0.8
N    -5.3   -3.5    0.0
C    -6.5   -4.0    0.6
N    -6.3   -4.5    1.8
N    -7.6   -3.9   -0.1
H    -1.4   -2.6    1.2
H    -1.2   -1.4   -0.1
H    -3.6   -1.4   -0.6
H    -2.9   -3.0   -0.8
H    -4.6   -2.2    1.6
H    -3.8   -3.7    1.4
H    -5.5   -3.0   -0.8
H    -7.1   -5.1    2.1
H    -5.4   -5.0    2.1
H    -8.3   -4.4    0.3
N    -3.5   -0.4    3.8
C    -3.9    0.9    3.5
H    -3.7   -0.8    4.7
H    -4.5    1.3    4.3
H    -4.5    1.0    2.5
H    -3.0    1.6    3.4
