          35
 sphere cut out from bulk 
C     0.4   -0.9   -0.2
C     0.3   -0.1    1.1
O     1.3    0.3    1.7
H     1.3   -1.5   -0.1
H     0.6   -0.1   -1.0
H    -0.4   -1.5   -0.4
N    -1.0    0.1    1.6
C    -2.3   -0.1    1.0
C    -2.7   -1.6    0.8
O    -3.5   -2.0    0.0
H    -1.0    0.7    2.4
H    -3.0    0.3    1.7
C    -2.5    0.8   -0.3
C    -3.9    0.9   -0.9
C    -5.0    1.3    0.1
N    -5.5    0.2    0.9
C    -5.4    0.1    2.3
N    -5.5    1.4    2.9
N    -5.3   -0.9    3.0
H    -1.8    0.4   -1.1
H    -2.1    1.8   -0.1
H    -4.2   -0.0   -1.4
H    -3.9    1.7   -1.7
H    -5.9    1.7   -0.5
H    -4.7    2.1    0.7
H    -5.3   -0.7    0.5
H    -5.6    1.3    3.9
H    -6.1    2.1    2.5
H    -5.2   -1.7    2.4
N    -2.0   -2.4    1.7
C    -2.4   -3.8    1.9
H    -1.4   -2.0    2.4
H    -1.4   -4.4    1.9
H    -3.0   -4.1    1.0
H    -2.9   -4.0    2.8
