          35
 sphere cut out from bulk 
C    -1.4    1.8   -0.2
C    -0.8    1.3    1.1
O     0.1    1.9    1.7
H    -1.2    1.0   -1.0
H    -0.8    2.7   -0.5
H    -2.4    2.0   -0.1
N    -1.3    0.2    1.7
C    -2.4   -0.7    1.2
C    -3.1   -1.3    2.5
O    -2.5   -1.4    3.5
H    -1.0   -0.0    2.7
H    -3.1   -0.1    0.7
C    -1.9   -1.8    0.2
C    -0.9   -2.8    0.9
C    -0.4   -3.7   -0.2
N     0.6   -4.7    0.4
C     0.9   -5.9   -0.2
N     1.8   -6.6    0.5
N     0.3   -6.2   -1.3
H    -1.4   -1.2   -0.6
H    -2.8   -2.3   -0.2
H    -1.4   -3.3    1.7
H    -0.1   -2.2    1.3
H     0.1   -3.2   -1.0
H    -1.2   -4.3   -0.6
H     1.3   -4.3    1.0
H     2.4   -7.2   -0.1
H     2.3   -6.2    1.2
H     0.5   -7.2   -1.6
N    -4.3   -1.8    2.3
C    -5.2   -1.8    1.1
H    -4.7   -2.3    3.1
H    -6.2   -1.8    1.4
H    -5.0   -2.7    0.5
H    -5.0   -0.9    0.5
