          35
 sphere cut out from bulk 
C     0.1   -0.4    0.2
C    -0.1   -0.1    1.7
O     0.9    0.1    2.4
H    -0.9   -0.4   -0.3
H     0.6   -1.4    0.1
H     0.7    0.4   -0.2
N    -1.4    0.1    2.1
C    -1.8    0.3    3.5
C    -0.8    1.3    4.3
O    -0.4    1.0    5.4
H    -2.1   -0.1    1.5
H    -2.7    0.8    3.5
C    -2.0   -1.0    4.3
C    -0.9   -2.1    4.2
C     0.3   -1.9    5.0
N     1.1   -3.1    4.9
C     2.3   -3.3    5.7
N     3.0   -4.4    5.4
N     2.7   -2.5    6.6
H    -3.0   -1.4    3.9
H    -2.2   -0.8    5.3
H    -0.7   -2.3    3.1
H    -1.4   -3.1    4.6
H     0.1   -1.8    6.0
H     0.9   -1.1    4.6
H     1.3   -3.5    4.0
H     3.8   -4.5    6.0
H     2.5   -5.2    5.3
H     2.2   -1.6    6.7
N    -0.7    2.5    3.8
C    -1.0    3.0    2.5
H    -0.0    3.1    4.3
H    -1.0    4.1    2.5
H    -2.0    2.7    2.2
H    -0.3    2.7    1.7
