          35
 sphere cut out from bulk 
C     0.7   -0.6    2.1
C    -0.1    0.3    1.2
O     0.4    1.1    0.4
H     1.0    0.0    3.0
H     1.6   -0.8    1.6
H     0.2   -1.5    2.4
N    -1.5    0.4    1.4
C    -2.4   -0.6    1.9
C    -2.0   -1.2    3.3
O    -2.1   -2.4    3.6
H    -1.9    1.0    0.7
H    -3.4   -0.1    2.0
C    -2.8   -1.8    0.9
C    -1.6   -2.4    0.1
C    -1.6   -2.0   -1.4
N    -1.4   -0.6   -1.7
C    -2.4    0.4   -1.8
N    -3.7   -0.1   -2.1
N    -2.3    1.6   -1.5
H    -3.5   -1.4    0.2
H    -3.2   -2.6    1.5
H    -1.7   -3.5    0.1
H    -0.6   -2.1    0.5
H    -2.5   -2.3   -1.9
H    -0.8   -2.6   -1.9
H    -0.5   -0.2   -1.4
H    -4.3    0.7   -2.3
H    -3.7   -0.8   -2.8
H    -1.3    1.8   -1.2
N    -1.7   -0.2    4.2
C    -1.3   -0.4    5.5
H    -1.7    0.8    3.8
H    -1.8    0.2    6.2
H    -0.2   -0.3    5.7
H    -1.6   -1.5    5.8
