          35
 sphere cut out from bulk 
C    -1.4    1.0   -0.6
C    -1.1   -0.2    0.4
O    -0.2   -0.9    0.2
H    -0.6    1.0   -1.4
H    -1.4    1.9   -0.1
H    -2.3    0.8   -1.2
N    -1.9   -0.2    1.4
C    -3.2    0.5    1.7
C    -3.0    1.8    2.5
O    -3.9    2.6    2.7
H    -1.8   -1.1    2.0
H    -3.6    0.9    0.8
C    -4.2   -0.3    2.4
C    -4.6   -1.6    1.6
C    -5.3   -1.3    0.3
N    -5.8   -2.5   -0.4
C    -7.0   -3.1   -0.0
N    -7.2   -4.3   -0.7
N    -7.7   -2.5    0.8
H    -5.1    0.3    2.6
H    -3.8   -0.6    3.4
H    -5.4   -2.1    2.2
H    -3.8   -2.3    1.5
H    -4.5   -0.8   -0.4
H    -6.1   -0.6    0.4
H    -5.1   -3.2   -0.7
H    -8.2   -4.6   -0.6
H    -7.0   -4.3   -1.7
H    -8.6   -3.0    0.9
N    -1.7    2.0    3.0
C    -1.3    3.2    3.8
H    -1.0    1.3    2.8
H    -2.2    3.8    3.9
H    -0.5    3.7    3.3
H    -1.0    2.9    4.8
