          35
 sphere cut out from bulk 
C    -0.0   -0.1    0.0
C    -0.0   -0.1    1.5
O     1.0    0.0    2.2
H     0.6   -1.0   -0.3
H     0.5    0.8   -0.4
H    -1.0   -0.2   -0.4
N    -1.2   -0.0    2.1
C    -1.4   -0.0    3.5
C    -2.7   -0.8    3.8
O    -3.7   -0.6    3.0
H    -2.1   -0.1    1.6
H    -0.6   -0.5    4.0
C    -1.5    1.4    4.0
C    -1.5    1.6    5.6
C    -1.5    3.1    6.0
N    -1.5    3.2    7.5
C    -2.5    2.8    8.3
N    -3.8    2.9    7.7
N    -2.4    2.3    9.5
H    -2.4    1.9    3.6
H    -0.6    2.0    3.6
H    -0.6    1.1    6.0
H    -2.4    1.1    6.0
H    -2.4    3.6    5.6
H    -0.7    3.6    5.6
H    -0.6    3.1    7.9
H    -4.5    2.7    8.4
H    -4.0    3.7    7.2
H    -1.4    2.1    9.7
N    -2.8   -1.5    5.0
C    -1.9   -1.8    6.0
H    -3.8   -1.9    5.1
H    -1.9   -2.9    6.2
H    -2.0   -1.2    6.9
H    -0.8   -1.6    5.6
