          35
 sphere cut out from bulk 
C     0.3   -0.1    0.5
C    -0.0   -0.4    2.0
O     0.9   -0.5    2.8
H     1.4    0.1    0.5
H    -0.3    0.7    0.1
H     0.1   -1.0   -0.1
N    -1.3   -0.5    2.3
C    -2.6   -0.3    1.5
C    -2.6   -1.3    0.3
O    -2.6   -0.8   -0.9
H    -1.4   -0.6    3.3
H    -3.4   -0.7    2.2
C    -2.9    1.1    1.1
C    -4.4    1.5    1.1
C    -5.2    0.8    0.1
N    -6.6    1.3    0.0
C    -6.9    2.5   -0.6
N    -8.2    2.9   -0.4
N    -6.2    3.2   -1.4
H    -2.5    1.4    0.1
H    -2.4    1.8    1.9
H    -4.5    2.6    1.0
H    -4.8    1.3    2.1
H    -5.3   -0.3    0.3
H    -4.8    0.9   -0.9
H    -7.2    1.1    0.8
H    -8.5    3.6   -1.0
H    -8.9    2.1   -0.5
H    -5.2    2.9   -1.4
N    -2.5   -2.6    0.6
C    -2.4   -3.3    1.8
H    -2.5   -3.2   -0.3
H    -1.4   -3.2    2.2
H    -2.7   -4.3    1.7
H    -3.1   -2.9    2.6
