          35
 sphere cut out from bulk 
C    -0.1   -0.2    1.0
C    -0.8   -0.8    2.2
O    -0.2   -1.5    3.0
H    -0.1    0.9    1.0
H    -0.5   -0.5    0.1
H     1.0   -0.6    1.1
N    -2.1   -0.5    2.3
C    -2.9    0.3    1.4
C    -2.7    1.9    1.5
O    -2.6    2.5    0.5
H    -2.6   -0.8    3.1
H    -2.7    0.1    0.4
C    -4.4    0.1    1.6
C    -5.0   -1.3    1.1
C    -5.2   -2.4    2.1
N    -4.0   -3.2    2.5
C    -3.3   -2.9    3.7
N    -2.2   -3.8    3.9
N    -3.6   -1.9    4.4
H    -5.0    0.9    1.0
H    -4.7    0.2    2.7
H    -4.3   -1.7    0.3
H    -5.9   -1.1    0.6
H    -5.9   -3.1    1.7
H    -5.6   -2.0    3.1
H    -3.6   -3.7    1.8
H    -1.3   -3.2    4.0
H    -2.0   -4.5    3.2
H    -3.0   -1.9    5.3
N    -2.5    2.5    2.7
C    -2.5    1.9    4.1
H    -2.3    3.5    2.7
H    -2.7    2.7    4.8
H    -1.6    1.4    4.3
H    -3.3    1.1    4.2
