          35
 sphere cut out from bulk 
C    -0.2   -0.3   -0.1
C    -0.0   -0.2    1.4
O     1.1   -0.2    2.0
H     0.2   -1.3   -0.4
H     0.5    0.5   -0.6
H    -1.2   -0.2   -0.5
N    -1.2    0.0    2.1
C    -1.3   -0.0    3.5
C    -2.5   -0.8    3.9
O    -3.5   -1.0    3.1
H    -2.1   -0.1    1.6
H    -0.4   -0.5    3.9
C    -1.4    1.4    4.2
C    -0.1    2.1    4.2
C    -0.1    3.5    5.0
N    -0.7    3.4    6.3
C    -0.3    2.5    7.3
N     1.0    2.2    7.3
N    -1.1    2.0    8.2
H    -1.8    1.3    5.2
H    -2.1    2.0    3.6
H     0.3    2.3    3.2
H     0.7    1.5    4.7
H    -0.7    4.2    4.4
H     0.9    3.9    5.0
H    -1.7    3.6    6.3
H     1.3    1.7    8.2
H     1.6    3.0    7.0
H    -2.1    2.2    8.0
N    -2.6   -1.4    5.1
C    -1.6   -1.3    6.2
H    -3.5   -1.8    5.3
H    -1.7   -0.4    6.8
H    -0.6   -1.4    5.8
H    -1.8   -2.1    6.9
