          35
 sphere cut out from bulk 
C     0.4    0.2    0.1
C     0.1   -0.2    1.5
O     0.9   -0.8    2.2
H     0.9   -0.6   -0.4
H     1.1    1.1    0.1
H    -0.5    0.5   -0.5
N    -1.1    0.3    2.0
C    -1.7   -0.1    3.3
C    -3.0    0.6    3.5
O    -3.9    0.1    4.2
H    -1.8    0.6    1.3
H    -1.9   -1.2    3.3
C    -0.8    0.2    4.5
C    -0.4    1.6    4.8
C     0.5    2.3    3.9
N     1.0    3.6    4.4
C     1.8    4.5    3.6
N     2.6    3.8    2.7
N     1.6    5.7    3.8
H     0.1   -0.4    4.4
H    -1.3   -0.2    5.4
H     0.1    1.6    5.8
H    -1.3    2.2    5.0
H     0.0    2.4    2.9
H     1.4    1.6    3.7
H     0.3    4.1    4.9
H     3.3    4.5    2.3
H     3.0    3.0    3.0
H     2.2    6.3    3.2
N    -3.2    1.9    2.9
C    -4.3    2.7    3.2
H    -2.3    2.3    2.5
H    -4.5    3.3    2.3
H    -4.2    3.4    4.0
H    -5.2    2.1    3.4
