          35
 sphere cut out from bulk 
C     0.1   -0.5    0.5
C     0.4    0.6    1.5
O     1.5    1.1    1.6
H     1.1   -0.9    0.1
H    -0.4   -0.2   -0.4
H    -0.5   -1.3    0.9
N    -0.6    1.1    2.2
C    -2.0    0.6    2.3
C    -2.8    0.6    0.9
O    -3.5   -0.4    0.7
H    -0.4    1.7    3.0
H    -2.0   -0.5    2.6
C    -2.8    1.4    3.3
C    -2.4    1.2    4.8
C    -1.5    2.4    5.3
N    -0.1    2.2    4.8
C     0.8    1.3    5.3
N     0.3    0.5    6.4
N     2.0    1.1    4.8
H    -3.9    1.0    3.2
H    -2.9    2.4    3.0
H    -2.0    0.3    5.0
H    -3.4    1.3    5.4
H    -1.6    2.4    6.4
H    -1.9    3.3    5.0
H     0.3    3.1    4.6
H     1.1   -0.1    6.7
H    -0.2    0.9    7.1
H     2.1    1.5    3.9
N    -2.6    1.6    0.1
C    -1.9    2.8    0.1
H    -3.2    1.5   -0.8
H    -2.3    3.5   -0.6
H    -0.8    2.7   -0.1
H    -1.9    3.3    1.1
