          35
 sphere cut out from bulk 
C     0.3   -2.6    0.5
C     1.0   -1.4    1.2
O     2.2   -1.4    1.4
H    -0.7   -2.4    0.3
H     0.5   -3.5    1.0
H     0.8   -2.7   -0.5
N     0.2   -0.4    1.6
C     0.8    0.8    2.2
C     0.9    0.6    3.7
O     0.1    1.1    4.5
H    -0.8   -0.4    1.4
H     1.8    1.0    1.8
C    -0.1    2.0    1.9
C     0.4    3.4    2.4
C    -0.5    4.1    3.4
N     0.1    5.2    4.1
C     0.8    5.0    5.3
N     1.2    3.8    5.7
N     1.2    6.0    6.1
H    -1.1    1.9    2.3
H    -0.3    2.1    0.8
H     0.7    4.0    1.6
H     1.4    3.2    3.0
H    -1.0    3.3    4.1
H    -1.4    4.5    2.8
H    -0.3    6.1    4.0
H     1.5    3.7    6.6
H     0.6    3.0    5.4
H     0.9    6.9    5.7
N     2.0   -0.1    4.0
C     2.3   -0.6    5.4
H     2.5   -0.6    3.3
H     2.2   -1.6    5.5
H     1.6   -0.1    6.1
H     3.3   -0.3    5.7
