          35
 sphere cut out from bulk 
C     0.2    1.8    0.5
C     0.8    1.0    1.6
O     2.0    1.2    2.0
H    -0.5    2.6    0.9
H    -0.4    1.2   -0.2
H     1.0    2.3   -0.1
N     0.0    0.1    2.2
C    -1.3   -0.4    1.9
C    -1.3   -1.1    0.5
O    -0.3   -1.7    0.1
H     0.6   -0.5    2.9
H    -1.5   -1.2    2.6
C    -2.4    0.6    2.1
C    -2.3    1.4    3.5
C    -2.4    0.5    4.7
N    -2.4    1.3    5.9
C    -2.8    0.8    7.2
N    -3.4   -0.4    7.2
N    -2.7    1.5    8.3
H    -3.4    0.1    2.1
H    -2.4    1.4    1.4
H    -3.1    2.1    3.5
H    -1.3    1.9    3.5
H    -1.6   -0.3    4.7
H    -3.4   -0.1    4.7
H    -1.7    2.0    5.9
H    -3.5   -0.7    8.2
H    -2.9   -1.1    6.7
H    -2.4    2.5    8.1
N    -2.5   -0.9   -0.2
C    -2.6   -1.6   -1.6
H    -3.2   -0.3    0.1
H    -3.5   -2.2   -1.6
H    -1.7   -2.2   -1.8
H    -2.8   -0.8   -2.3
