          35
 sphere cut out from bulk 
C    -0.0    0.2    0.0
C    -0.0    0.1    1.5
O     1.0   -0.1    2.2
H     0.6    1.1   -0.2
H    -1.0    0.4   -0.4
H     0.5   -0.7   -0.4
N    -1.2    0.1    2.1
C    -1.4    0.0    3.6
C    -1.5   -1.5    4.0
O    -2.5   -2.0    4.2
H    -2.1    0.2    1.6
H    -0.5    0.5    4.0
C    -2.7    0.8    4.0
C    -2.8    0.9    5.5
C    -1.7    1.6    6.3
N    -1.3    2.9    5.8
C    -2.0    4.0    6.1
N    -1.6    5.2    5.4
N    -3.1    4.2    6.8
H    -3.5    0.3    3.6
H    -2.6    1.8    3.6
H    -3.0   -0.1    6.0
H    -3.8    1.5    5.7
H    -0.8    1.0    6.2
H    -1.9    1.7    7.4
H    -0.7    3.0    5.0
H    -2.0    6.0    5.7
H    -0.6    5.3    5.4
H    -3.4    3.3    7.2
N    -0.2   -2.0    4.1
C    -0.1   -3.5    4.3
H     0.5   -1.5    3.7
H     0.8   -3.6    5.0
H     0.1   -4.0    3.4
H    -1.0   -3.8    4.8
