          35
 sphere cut out from bulk 
C    -2.2    0.7    0.3
C    -1.5    0.9    1.7
O    -1.1    2.0    2.0
H    -1.6   -0.0   -0.3
H    -2.2    1.7   -0.2
H    -3.2    0.3    0.5
N    -1.4   -0.1    2.5
C    -2.2   -1.4    2.6
C    -2.1   -2.2    1.4
O    -3.1   -2.5    0.7
H    -0.9    0.1    3.4
H    -1.7   -2.0    3.4
C    -3.6   -1.1    3.1
C    -3.9   -0.7    4.5
C    -3.2    0.6    5.0
N    -3.3    1.8    4.2
C    -4.5    2.3    3.8
N    -4.4    3.2    2.7
N    -5.6    2.0    4.3
H    -4.2   -2.0    2.8
H    -4.1   -0.3    2.4
H    -3.5   -1.5    5.2
H    -4.9   -0.6    4.7
H    -2.2    0.5    5.2
H    -3.7    0.9    6.0
H    -2.5    2.0    3.6
H    -5.2    3.9    2.6
H    -3.5    3.6    2.5
H    -6.5    2.5    4.0
N    -0.9   -2.6    0.9
C     0.4   -2.4    1.6
H    -0.9   -3.2    0.1
H     1.1   -3.2    1.2
H     0.3   -2.5    2.7
H     0.8   -1.4    1.4
