          35
 sphere cut out from bulk 
C    -4.4    3.3    2.5
C    -3.1    2.4    2.4
O    -2.1    2.8    1.7
H    -4.7    3.5    1.5
H    -4.1    4.2    2.9
H    -5.2    2.8    3.1
N    -3.1    1.3    3.1
C    -1.9    0.4    3.1
C    -2.5   -1.0    3.5
O    -3.5   -1.1    4.1
H    -3.9    1.0    3.6
H    -1.5    0.4    2.1
C    -0.8    0.8    4.1
C     0.6    0.6    3.6
C     1.0    1.4    2.4
N     0.8    2.8    2.5
C     1.3    3.6    3.5
N     2.7    3.3    3.8
N     0.6    4.5    4.0
H    -1.0    0.4    5.1
H    -1.0    1.9    4.3
H     0.8   -0.5    3.4
H     1.3    0.8    4.5
H     0.5    1.1    1.5
H     2.1    1.2    2.2
H    -0.2    3.1    2.3
H     3.1    4.0    4.3
H     3.2    3.0    3.0
H     1.2    5.1    4.6
N    -1.7   -2.0    3.1
C    -2.0   -3.4    3.4
H    -0.9   -1.8    2.5
H    -2.9   -3.4    4.0
H    -1.1   -3.9    4.0
H    -2.1   -4.0    2.5
