          35
 sphere cut out from bulk 
C    -1.3    1.5    2.9
C    -1.6    0.6    4.0
O    -1.3    0.9    5.2
H    -0.3    1.8    2.9
H    -1.9    2.4    3.0
H    -1.6    1.0    1.9
N    -2.3   -0.6    3.8
C    -2.5   -1.6    4.7
C    -1.9   -2.9    4.1
O    -2.0   -3.1    2.9
H    -2.4   -0.9    2.8
H    -1.9   -1.3    5.6
C    -3.9   -1.9    5.1
C    -4.6   -0.9    6.1
C    -5.1    0.4    5.5
N    -4.2    1.5    5.6
C    -4.4    2.7    5.0
N    -3.3    3.6    4.9
N    -5.5    3.2    4.6
H    -4.0   -2.9    5.6
H    -4.5   -2.0    4.2
H    -4.0   -0.7    6.9
H    -5.5   -1.4    6.5
H    -6.0    0.7    6.0
H    -5.4    0.3    4.4
H    -3.2    1.2    5.7
H    -2.6    3.4    5.6
H    -3.5    4.5    4.8
H    -6.3    2.5    4.6
N    -1.3   -3.8    5.0
C    -0.8   -5.1    4.6
H    -1.3   -3.5    6.0
H    -1.3   -5.9    5.1
H     0.3   -5.2    4.8
H    -1.0   -5.2    3.5
