          35
 sphere cut out from bulk 
C    -0.6   -2.2    0.2
C    -0.9   -2.0    1.7
O    -1.4   -2.9    2.4
H    -1.4   -2.7   -0.2
H     0.3   -2.9    0.2
H    -0.4   -1.3   -0.3
N    -0.8   -0.7    2.2
C    -0.8   -0.4    3.6
C    -2.0    0.5    4.0
O    -2.1    1.1    5.0
H    -0.3   -0.1    1.6
H    -1.0   -1.3    4.1
C     0.5    0.2    4.1
C     1.1    1.4    3.4
C     0.3    2.7    3.6
N     0.1    3.1    5.0
C     1.1    3.4    5.8
N     2.2    4.2    5.2
N     1.1    3.0    7.0
H     1.2   -0.6    4.1
H     0.4    0.4    5.2
H     1.2    1.2    2.3
H     2.1    1.6    3.8
H    -0.7    2.6    3.1
H     0.8    3.5    3.0
H    -0.6    2.6    5.5
H     2.9    4.5    5.9
H     1.9    4.9    4.5
H     1.9    3.4    7.6
N    -3.0    0.6    3.0
C    -4.3    1.3    3.2
H    -2.9    0.1    2.2
H    -5.1    0.6    3.3
H    -4.5    2.0    2.4
H    -4.2    1.8    4.2
