          35
 sphere cut out from bulk 
C     1.7    0.4    0.3
C     1.0    0.4    1.7
O     1.6    0.8    2.7
H     2.6   -0.3    0.3
H     2.1    1.4    0.1
H     1.1    0.1   -0.5
N    -0.3   -0.0    1.6
C    -1.2   -0.2    2.8
C    -2.3    0.8    2.8
O    -3.5    0.5    2.9
H    -0.6   -0.3    0.7
H    -1.8   -1.1    2.5
C    -0.6   -0.5    4.2
C     0.2   -1.7    4.2
C     0.8   -2.0    5.6
N     1.6   -3.2    5.6
C     2.1   -3.8    6.8
N     1.6   -3.3    8.0
N     3.0   -4.8    6.8
H    -1.5   -0.6    4.8
H    -0.0    0.4    4.5
H     1.1   -1.6    3.5
H    -0.3   -2.6    3.9
H    -0.0   -2.1    6.3
H     1.4   -1.1    5.9
H     2.2   -3.3    4.8
H     2.0   -3.8    8.8
H     1.5   -2.3    8.1
H     3.2   -5.1    5.9
N    -2.0    2.2    2.9
C    -0.8    2.9    2.8
H    -2.9    2.8    2.9
H    -0.8    3.8    3.4
H    -0.5    3.2    1.8
H     0.0    2.3    3.2
