          35
 sphere cut out from bulk 
C    -0.4   -0.1   -0.0
C    -0.2   -0.4    1.4
O     0.7   -1.1    1.9
H    -0.7   -1.1   -0.5
H     0.5    0.2   -0.5
H    -1.2    0.7   -0.3
N    -1.1    0.3    2.3
C    -1.4    0.2    3.7
C    -0.8    1.3    4.6
O    -1.5    1.7    5.5
H    -1.8    0.9    1.8
H    -2.4    0.4    3.8
C    -1.1   -1.2    4.3
C    -2.3   -2.1    4.5
C    -3.4   -1.5    5.3
N    -3.0   -0.8    6.6
C    -2.3   -1.5    7.6
N    -2.7   -2.8    7.8
N    -1.4   -0.9    8.4
H    -0.6   -1.0    5.3
H    -0.3   -1.7    3.8
H    -2.0   -3.0    5.0
H    -2.7   -2.4    3.5
H    -4.2   -2.3    5.6
H    -4.0   -0.7    4.8
H    -2.7    0.1    6.4
H    -3.6   -3.0    7.7
H    -2.3   -3.2    8.6
H    -1.2   -0.0    8.0
N     0.4    1.8    4.4
C     1.5    1.4    3.5
H     0.7    2.5    5.1
H     1.5    2.0    2.6
H     1.5    0.4    3.3
H     2.5    1.6    4.0
