          35
 sphere cut out from bulk 
C    -0.1    0.7    0.2
C    -0.3    0.7    1.7
O     0.5    1.2    2.5
H     0.9    1.2    0.0
H    -0.9    1.3   -0.2
H    -0.2   -0.3   -0.2
N    -1.4    0.1    2.2
C    -2.6   -0.4    1.4
C    -3.4    0.7    0.7
O    -3.8    0.5   -0.4
H    -1.5    0.1    3.2
H    -2.2   -1.0    0.6
C    -3.5   -1.3    2.3
C    -2.9   -2.7    2.6
C    -3.6   -3.5    3.6
N    -5.0   -3.9    3.2
C    -6.1   -3.0    3.4
N    -6.1   -2.3    4.6
N    -7.1   -2.9    2.6
H    -4.4   -1.5    1.8
H    -3.8   -0.8    3.2
H    -1.8   -2.5    3.0
H    -2.7   -3.2    1.7
H    -3.7   -3.0    4.6
H    -3.1   -4.5    3.8
H    -5.0   -4.3    2.3
H    -7.0   -1.8    4.7
H    -5.8   -2.8    5.4
H    -7.0   -3.4    1.7
N    -3.7    1.9    1.4
C    -3.4    2.3    2.7
H    -4.3    2.5    0.8
H    -3.7    1.5    3.5
H    -4.1    3.1    3.0
H    -2.4    2.5    2.9
