          35
 sphere cut out from bulk 
C     0.0    0.6   -0.2
C    -0.2   -0.5    0.8
O     0.5   -1.5    0.8
H     0.9    0.3   -0.8
H     0.2    1.6    0.3
H    -0.8    0.8   -0.9
N    -1.3   -0.4    1.7
C    -2.4    0.5    2.0
C    -3.8   -0.2    1.8
O    -4.6   -0.1    2.7
H    -1.3   -1.2    2.3
H    -2.4    0.7    3.1
C    -2.4    1.9    1.3
C    -3.5    2.8    1.8
C    -4.7    2.8    0.8
N    -5.9    3.4    1.4
C    -6.9    3.9    0.6
N    -8.0    4.3    1.3
N    -6.8    3.8   -0.7
H    -2.3    1.9    0.2
H    -1.4    2.4    1.6
H    -3.2    3.9    1.9
H    -3.9    2.5    2.8
H    -5.0    1.7    0.5
H    -4.5    3.3   -0.1
H    -6.2    3.0    2.3
H    -8.7    4.8    0.7
H    -7.8    4.8    2.1
H    -7.5    4.3   -1.2
N    -4.0   -0.9    0.7
C    -3.3   -1.0   -0.6
H    -5.0   -1.3    0.7
H    -4.0   -1.4   -1.3
H    -2.4   -1.6   -0.5
H    -3.0    0.0   -0.9
