          35
 sphere cut out from bulk 
C    -0.5    2.2    0.1
C    -0.0    1.1    1.1
O     1.1    1.1    1.6
H     0.4    2.7   -0.2
H    -1.2    2.9    0.5
H    -0.9    1.7   -0.8
N    -1.0    0.2    1.5
C    -2.4    0.2    1.2
C    -3.2    1.4    1.8
O    -4.0    2.0    1.1
H    -0.7   -0.4    2.2
H    -2.5    0.3    0.1
C    -3.0   -1.1    1.6
C    -4.6   -1.2    1.4
C    -5.0   -1.1   -0.0
N    -6.4   -1.4   -0.2
C    -6.9   -2.7   -0.2
N    -8.3   -2.7   -0.3
N    -6.3   -3.8   -0.2
H    -2.8   -1.3    2.7
H    -2.5   -1.9    1.1
H    -5.1   -0.5    2.0
H    -4.9   -2.2    1.8
H    -4.4   -1.8   -0.7
H    -4.8   -0.1   -0.4
H    -7.1   -0.7    0.1
H    -8.7   -3.6   -0.4
H    -8.8   -2.0   -0.9
H    -5.3   -3.7   -0.1
N    -3.0    1.9    3.0
C    -2.1    1.4    4.1
H    -3.6    2.7    3.3
H    -2.1    0.3    4.2
H    -2.4    1.9    5.0
H    -1.0    1.6    3.9
