          35
 sphere cut out from bulk 
C    -1.1   -0.5   -1.0
C    -0.9   -0.2    0.5
O    -0.1    0.7    0.8
H    -1.4    0.4   -1.6
H    -1.8   -1.3   -1.2
H    -0.1   -0.8   -1.4
N    -1.7   -0.9    1.3
C    -1.6   -0.7    2.8
C    -2.2   -2.0    3.4
O    -2.8   -2.8    2.7
H    -2.3   -1.6    1.0
H    -0.5   -0.7    3.0
C    -2.2    0.6    3.3
C    -3.8    0.6    3.1
C    -4.4    1.9    3.7
N    -4.3    1.9    5.1
C    -3.7    2.9    5.9
N    -2.7    3.7    5.2
N    -3.9    3.2    7.1
H    -1.7    1.4    2.8
H    -2.0    0.7    4.4
H    -4.2   -0.3    3.5
H    -4.0    0.6    2.0
H    -5.5    1.9    3.4
H    -3.9    2.8    3.3
H    -5.0    1.4    5.7
H    -2.2    4.3    5.8
H    -2.1    3.1    4.6
H    -4.7    2.7    7.5
N    -1.9   -2.1    4.7
C    -2.5   -3.2    5.5
H    -1.4   -1.4    5.2
H    -1.6   -3.8    5.9
H    -3.0   -3.9    4.8
H    -3.1   -2.9    6.3
