          35
 sphere cut out from bulk 
C    -0.5   -0.4    2.2
C    -1.7   -0.7    3.0
O    -1.5   -0.8    4.3
H    -0.6    0.5    1.6
H    -0.3   -1.2    1.5
H     0.4   -0.3    2.8
N    -2.9   -0.8    2.5
C    -3.3   -0.6    1.1
C    -2.6   -1.6    0.1
O    -2.7   -2.8    0.4
H    -3.6   -1.0    3.1
H    -4.3   -1.0    1.1
C    -3.4    0.9    0.7
C    -4.4    1.1   -0.5
C    -5.8    1.5    0.0
N    -6.5    0.6    0.9
C    -6.3    0.6    2.3
N    -6.4    1.8    2.9
N    -6.1   -0.6    2.9
H    -2.5    1.3    0.5
H    -3.8    1.4    1.6
H    -4.1    2.0   -1.1
H    -4.5    0.2   -1.1
H    -6.5    1.6   -0.8
H    -5.8    2.5    0.5
H    -6.5   -0.4    0.6
H    -6.4    1.8    3.9
H    -7.1    2.5    2.5
H    -6.2   -0.5    3.9
N    -1.9   -1.2   -1.0
C    -1.3    0.0   -1.5
H    -1.5   -2.1   -1.5
H    -0.7   -0.2   -2.3
H    -0.7    0.5   -0.7
H    -2.1    0.7   -1.8
