          35
 sphere cut out from bulk 
C     0.1   -1.3    1.0
C     0.2   -0.1    1.9
O     1.3    0.3    2.4
H    -0.1   -1.0   -0.0
H    -0.7   -2.0    1.3
H     1.1   -1.8    1.0
N    -0.9    0.6    2.2
C    -2.3    0.3    1.7
C    -2.5    0.4    0.2
O    -2.9   -0.5   -0.5
H    -0.8    1.4    2.8
H    -2.5   -0.8    1.9
C    -3.3    1.1    2.5
C    -4.7    1.2    1.9
C    -5.6    2.1    2.7
N    -6.8    2.5    2.0
C    -6.7    3.4    1.0
N    -8.0    3.7    0.4
N    -5.6    4.0    0.7
H    -2.9    2.2    2.6
H    -3.3    0.8    3.5
H    -5.1    0.2    1.9
H    -4.7    1.5    0.9
H    -5.0    3.1    2.9
H    -5.9    1.7    3.7
H    -7.5    1.8    1.9
H    -7.9    4.0   -0.6
H    -8.7    3.1    0.6
H    -5.8    4.8   -0.0
N    -2.1    1.6   -0.5
C    -1.8    2.9    0.1
H    -2.4    1.6   -1.4
H    -2.7    3.4    0.5
H    -1.4    3.5   -0.7
H    -1.1    2.8    0.9
