          35
 sphere cut out from bulk 
C     0.5   -0.1    0.3
C     0.6    0.2    1.7
O     1.4    0.9    2.2
H     0.3    0.8   -0.3
H    -0.2   -0.8   -0.0
H     1.5   -0.5   -0.1
N    -0.4   -0.4    2.5
C    -0.4   -0.3    3.9
C     0.5   -1.4    4.6
O     0.3   -2.6    4.2
H    -1.0   -1.1    2.0
H     0.1    0.7    4.1
C    -1.9   -0.2    4.5
C    -2.4   -1.4    5.3
C    -2.8   -2.7    4.6
N    -3.7   -2.5    3.5
C    -3.2   -2.4    2.2
N    -4.2   -1.9    1.3
N    -2.1   -2.7    1.7
H    -2.5    0.0    3.7
H    -1.9    0.7    5.2
H    -3.3   -1.0    5.9
H    -1.7   -1.6    6.2
H    -3.3   -3.4    5.3
H    -1.9   -3.2    4.3
H    -4.5   -2.0    3.7
H    -3.9   -2.0    0.3
H    -5.1   -2.1    1.5
H    -1.4   -3.1    2.5
N     1.3   -1.0    5.5
C     1.7    0.4    5.9
H     1.9   -1.8    5.9
H     2.5    0.3    6.6
H     0.9    0.9    6.4
H     2.1    0.9    5.0
