          35
 sphere cut out from bulk 
C     2.5   -0.2    2.3
C     1.4   -0.9    3.1
O     1.8   -1.5    4.2
H     3.2   -0.9    1.9
H     3.0    0.5    2.9
H     2.0    0.3    1.4
N     0.2   -1.0    2.6
C    -0.8   -1.9    3.2
C    -2.0   -2.0    2.3
O    -2.6   -3.1    2.2
H     0.1   -0.8    1.6
H    -0.4   -2.9    3.3
C    -1.4   -1.4    4.6
C    -2.0   -2.4    5.5
C    -0.9   -3.2    6.3
N     0.2   -3.7    5.6
C     0.2   -4.8    4.8
N    -0.9   -5.7    4.8
N     1.2   -5.2    4.0
H    -2.1   -0.5    4.4
H    -0.5   -0.9    5.1
H    -2.6   -3.1    4.8
H    -2.7   -2.0    6.2
H    -1.4   -4.0    6.8
H    -0.6   -2.5    7.1
H     0.9   -3.0    5.3
H    -1.8   -5.2    4.8
H    -0.8   -6.4    4.1
H     2.0   -4.5    4.1
N    -2.4   -0.9    1.6
C    -3.6   -0.9    0.7
H    -2.0   -0.1    1.8
H    -3.8   -1.9    0.4
H    -3.5   -0.2   -0.1
H    -4.5   -0.6    1.3
