          35
 sphere cut out from bulk 
C    -0.1    0.1   -0.2
C     0.1   -0.1    1.3
O     1.3   -0.2    1.7
H     0.8    0.1   -0.7
H    -0.6    1.1   -0.4
H    -0.8   -0.7   -0.6
N    -0.9   -0.1    2.1
C    -2.4   -0.0    1.8
C    -3.1    0.8    2.9
O    -3.5    0.3    3.9
H    -0.7   -0.3    3.1
H    -2.5    0.5    0.8
C    -3.0   -1.4    1.7
C    -4.4   -1.4    1.1
C    -5.0   -2.8    0.9
N    -6.3   -2.8    0.2
C    -7.5   -2.5    0.9
N    -8.6   -2.5    0.0
N    -7.5   -2.3    2.2
H    -3.1   -1.9    2.7
H    -2.4   -2.1    1.1
H    -4.3   -0.9    0.1
H    -5.1   -0.8    1.7
H    -5.2   -3.2    1.9
H    -4.3   -3.5    0.4
H    -6.3   -2.6   -0.7
H    -9.5   -2.4    0.5
H    -8.6   -3.2   -0.7
H    -8.4   -2.2    2.5
N    -3.1    2.2    2.6
C    -2.5    2.9    1.5
H    -3.5    2.7    3.4
H    -1.4    2.8    1.5
H    -2.7    4.0    1.7
H    -2.9    2.6    0.6
