          35
 sphere cut out from bulk 
C     0.3   -0.4    0.3
C    -0.2    0.5    1.5
O     0.6    1.4    1.9
H     0.8    0.2   -0.4
H    -0.6   -0.9   -0.2
H     0.9   -1.2    0.8
N    -1.4    0.3    2.1
C    -2.5   -0.7    1.9
C    -1.9   -2.1    1.7
O    -1.0   -2.5    2.4
H    -1.5    0.9    2.9
H    -3.0   -0.7    2.8
C    -3.5   -0.2    0.8
C    -3.1    0.1   -0.6
C    -4.2    0.8   -1.4
N    -4.6    2.1   -0.9
C    -3.9    3.2   -1.4
N    -4.5    4.4   -0.9
N    -2.9    3.3   -2.2
H    -4.0    0.8    1.3
H    -4.4   -0.9    0.8
H    -2.8   -0.8   -1.1
H    -2.2    0.8   -0.6
H    -5.1    0.1   -1.4
H    -3.9    0.8   -2.5
H    -5.6    2.2   -0.8
H    -3.9    5.2   -1.1
H    -4.8    4.4    0.1
H    -2.6    2.4   -2.5
N    -2.5   -2.9    0.8
C    -2.2   -4.3    0.6
H    -3.3   -2.5    0.2
H    -1.8   -4.5   -0.5
H    -3.0   -4.9    0.8
H    -1.4   -4.5    1.3
