          35
 sphere cut out from bulk 
C    -0.4    1.4    1.4
C    -0.8    0.4    2.5
O     0.1   -0.2    3.1
H    -0.4    1.0    0.4
H     0.6    1.7    1.7
H    -1.1    2.3    1.4
N    -2.1    0.1    2.6
C    -3.2    0.4    1.8
C    -4.4    0.9    2.6
O    -4.6    0.3    3.7
H    -2.3   -0.6    3.4
H    -2.9    1.2    1.1
C    -3.7   -0.8    0.9
C    -2.6   -1.4   -0.0
C    -1.9   -2.6    0.7
N    -0.9   -3.2   -0.1
C     0.3   -2.6   -0.6
N     0.8   -1.6    0.2
N     1.0   -2.9   -1.6
H    -4.5   -0.4    0.2
H    -4.2   -1.5    1.5
H    -1.9   -0.7   -0.4
H    -3.1   -1.9   -0.9
H    -2.6   -3.3    1.0
H    -1.4   -2.2    1.6
H    -1.2   -3.9   -0.8
H     0.7   -1.7    1.2
H     1.7   -1.4   -0.0
H     0.5   -3.6   -2.2
N    -5.2    1.9    2.1
C    -5.0    2.6    0.9
H    -6.0    2.1    2.8
H    -5.0    2.0    0.0
H    -4.1    3.2    0.9
H    -5.9    3.3    0.8
