          35
 sphere cut out from bulk 
C    -1.9    0.2    4.6
C    -0.9    0.1    3.5
O    -1.2   -0.2    2.3
H    -1.4    0.1    5.6
H    -2.7   -0.5    4.5
H    -2.4    1.2    4.6
N     0.4    0.5    3.8
C     1.4    0.5    2.8
C     2.7   -0.2    3.4
O     2.9    0.0    4.6
H     0.7    0.7    4.7
H     1.1   -0.1    1.9
C     1.8    1.9    2.3
C     0.6    2.6    1.6
C     0.5    4.1    2.1
N     0.4    4.3    3.5
C    -0.8    4.0    4.2
N    -0.7    4.2    5.6
N    -1.9    3.6    3.7
H     2.7    1.9    1.6
H     2.1    2.5    3.2
H    -0.3    2.1    1.9
H     0.7    2.6    0.5
H    -0.3    4.6    1.5
H     1.4    4.7    1.8
H     1.0    5.0    3.9
H    -1.5    3.9    6.1
H     0.2    3.9    6.0
H    -1.9    3.6    2.7
N     3.4   -0.9    2.6
C     4.7   -1.6    3.0
H     3.1   -1.1    1.7
H     5.5   -1.2    2.4
H     4.6   -2.6    3.0
H     4.8   -1.3    4.1
