          35
 sphere cut out from bulk 
C    -0.9    0.8    0.3
C    -1.8    0.5    1.5
O    -2.8    1.2    1.7
H     0.0    0.2    0.3
H    -0.7    1.9    0.2
H    -1.5    0.5   -0.6
N    -1.3   -0.5    2.3
C    -2.0   -0.9    3.5
C    -1.1   -2.1    4.1
O    -0.1   -2.5    3.4
H    -0.5   -1.0    2.0
H    -1.9   -0.1    4.2
C    -3.4   -1.4    3.3
C    -3.6   -2.4    2.2
C    -4.9   -2.1    1.4
N    -4.7   -0.9    0.6
C    -4.4   -1.1   -0.8
N    -4.0    0.1   -1.4
N    -4.5   -2.2   -1.4
H    -4.0   -0.5    3.1
H    -3.8   -1.7    4.3
H    -3.8   -3.4    2.7
H    -2.8   -2.5    1.6
H    -5.8   -2.0    2.0
H    -5.1   -3.0    0.7
H    -4.3   -0.1    1.0
H    -4.1    0.2   -2.3
H    -4.2    1.0   -0.8
H    -4.3   -2.1   -2.4
N    -1.4   -2.5    5.3
C    -0.7   -3.6    5.9
H    -2.2   -2.1    5.7
H    -0.3   -3.3    6.9
H     0.2   -3.9    5.3
H    -1.3   -4.5    6.1
