          35
 sphere cut out from bulk 
C    -0.6    0.2   -0.2
C    -0.3    0.2    1.3
O     0.8    0.5    1.8
H     0.1   -0.6   -0.6
H    -0.3    1.2   -0.6
H    -1.6   -0.0   -0.5
N    -1.4   -0.1    2.1
C    -1.4   -0.2    3.6
C    -1.3    1.1    4.4
O    -1.9    1.2    5.4
H    -2.3   -0.2    1.6
H    -2.5   -0.6    3.8
C    -0.5   -1.4    4.0
C    -0.2   -1.6    5.5
C     1.1   -1.1    6.0
N     1.3    0.3    5.9
C     2.4    0.9    5.3
N     2.9    0.3    4.2
N     2.9    2.0    5.9
H     0.5   -1.2    3.5
H    -0.9   -2.3    3.5
H    -0.3   -2.7    5.7
H    -1.0   -1.1    6.1
H     1.9   -1.6    5.4
H     1.3   -1.5    7.0
H     1.0    0.8    6.7
H     3.7    0.8    3.8
H     2.2    0.1    3.5
H     3.5    2.5    5.3
N    -0.5    2.0    3.9
C    -0.3    3.3    4.6
H     0.1    1.8    3.1
H    -0.2    4.1    3.9
H     0.6    3.2    5.2
H    -1.1    3.5    5.2
