          35
 sphere cut out from bulk 
C    -0.6   -1.1   -0.4
C    -0.7   -1.1    1.1
O     0.2   -1.3    1.9
H    -0.7   -2.1   -0.8
H    -1.3   -0.4   -0.9
H     0.5   -0.8   -0.6
N    -2.0   -0.9    1.7
C    -3.3   -0.5    1.1
C    -3.6   -1.2   -0.2
O    -3.9   -0.5   -1.2
H    -2.0   -1.0    2.7
H    -4.0   -0.9    1.8
C    -3.5    1.0    1.1
C    -2.5    1.9    0.3
C    -3.0    3.3    0.2
N    -4.3    3.5   -0.4
C    -4.6    3.4   -1.7
N    -4.0    2.3   -2.4
N    -5.4    4.3   -2.2
H    -3.5    1.3    2.2
H    -4.5    1.2    0.7
H    -2.3    1.4   -0.6
H    -1.6    1.9    0.9
H    -2.2    3.8   -0.5
H    -3.0    3.8    1.1
H    -4.8    4.3    0.0
H    -4.3    2.2   -3.4
H    -4.0    1.4   -1.9
H    -5.6    4.1   -3.2
N    -3.6   -2.5   -0.3
C    -3.3   -3.5    0.8
H    -3.8   -2.9   -1.2
H    -2.3   -3.7    0.9
H    -3.8   -4.5    0.5
H    -3.8   -3.2    1.7
