          35
 sphere cut out from bulk 
C     0.3   -1.0    0.6
C     0.0   -0.1    1.7
O     0.5    1.1    1.8
H    -0.2   -2.0    0.7
H     1.4   -1.1    0.5
H    -0.0   -0.5   -0.4
N    -0.8   -0.5    2.7
C    -1.2    0.3    3.9
C    -0.0    0.2    5.0
O    -0.1   -0.6    5.9
H    -1.1   -1.5    2.7
H    -1.2    1.3    3.5
C    -2.5   -0.2    4.4
C    -3.1    0.8    5.5
C    -4.4    0.3    6.0
N    -4.3   -1.0    6.7
C    -5.1   -2.1    6.4
N    -5.7   -2.1    5.1
N    -5.4   -3.1    7.2
H    -2.4   -1.2    4.8
H    -3.2   -0.2    3.5
H    -3.2    1.8    5.1
H    -2.4    0.8    6.3
H    -5.2    0.2    5.3
H    -4.8    1.0    6.8
H    -3.9   -1.1    7.6
H    -6.2   -3.0    5.0
H    -5.1   -1.9    4.4
H    -5.1   -2.9    8.1
N     1.0    0.9    4.7
C     2.2    0.9    5.5
H     1.1    1.4    3.7
H     2.0    0.5    6.4
H     2.6    1.9    5.6
H     3.0    0.3    5.0
