          35
 sphere cut out from bulk 
C    -0.2    0.9    0.2
C     0.0   -0.3    1.1
O     1.1   -0.8    1.3
H    -0.8    0.7   -0.7
H     0.8    1.3   -0.1
H    -0.7    1.7    0.7
N    -1.1   -0.8    1.6
C    -2.5   -0.4    1.4
C    -2.9    0.8    2.1
O    -3.9    1.5    1.7
H    -1.0   -1.7    2.1
H    -2.7   -0.2    0.3
C    -3.4   -1.6    1.8
C    -4.9   -1.5    1.3
C    -5.8   -2.6    1.8
N    -5.5   -3.9    1.3
C    -4.5   -4.8    1.8
N    -4.3   -4.7    3.2
N    -3.7   -5.6    1.1
H    -3.4   -1.8    2.9
H    -3.0   -2.5    1.3
H    -4.9   -1.4    0.2
H    -5.3   -0.5    1.7
H    -6.8   -2.4    1.5
H    -5.8   -2.7    2.9
H    -5.5   -4.0    0.2
H    -3.7   -5.5    3.5
H    -5.2   -4.7    3.7
H    -3.8   -5.4    0.1
N    -2.2    1.1    3.2
C    -2.5    2.3    4.0
H    -1.4    0.6    3.4
H    -2.7    2.0    5.1
H    -3.3    2.8    3.6
H    -1.6    3.0    4.0
