          35
 sphere cut out from bulk 
C    -0.8    1.6   -0.6
C    -0.5    0.6    0.5
O     0.4   -0.2    0.4
H    -1.8    1.6   -0.9
H    -0.1    1.4   -1.4
H    -0.6    2.6   -0.2
N    -1.3    0.6    1.6
C    -2.3    1.6    2.0
C    -1.7    3.0    2.3
O    -2.4    4.0    1.9
H    -1.0   -0.1    2.4
H    -2.9    1.8    1.1
C    -3.2    1.1    3.1
C    -4.1   -0.1    2.8
C    -3.5   -1.5    2.8
N    -3.1   -1.9    4.2
C    -1.8   -1.9    4.6
N    -1.6   -2.4    5.9
N    -0.8   -1.3    3.9
H    -3.8    2.0    3.4
H    -2.6    0.9    4.0
H    -4.5    0.1    1.8
H    -5.0   -0.0    3.5
H    -2.6   -1.6    2.2
H    -4.3   -2.2    2.5
H    -3.8   -2.0    4.9
H    -0.6   -2.5    6.2
H    -2.1   -3.3    6.0
H     0.1   -1.5    4.2
N    -0.6    3.1    3.0
C     0.3    2.1    3.6
H    -0.3    4.1    3.1
H     0.9    2.6    4.4
H     1.0    1.7    2.9
H    -0.2    1.3    4.1
