          35
 sphere cut out from bulk 
C    -0.3   -0.0   -0.1
C    -0.2   -0.0    1.4
O     0.9   -0.0    2.0
H     0.3   -0.9   -0.5
H     0.1    0.9   -0.5
H    -1.4   -0.1   -0.4
N    -1.4   -0.0    2.1
C    -1.5    0.1    3.6
C    -1.1   -1.2    4.4
O    -0.9   -1.0    5.6
H    -2.3   -0.1    1.6
H    -0.7    0.8    3.9
C    -2.9    0.6    4.0
C    -4.0   -0.3    3.7
C    -5.4    0.2    4.2
N    -6.5   -0.6    3.8
C    -7.0   -0.6    2.5
N    -8.0   -1.6    2.4
N    -6.7    0.2    1.6
H    -3.0    1.6    3.5
H    -2.8    0.8    5.1
H    -3.9   -1.3    4.2
H    -4.1   -0.6    2.6
H    -5.5    1.2    3.8
H    -5.4    0.3    5.3
H    -6.6   -1.4    4.3
H    -8.5   -1.5    1.5
H    -8.7   -1.7    3.1
H    -6.0    0.8    1.8
N    -1.1   -2.5    3.9
C    -1.4   -3.0    2.5
H    -0.8   -3.1    4.6
H    -2.3   -2.6    2.1
H    -1.4   -4.1    2.6
H    -0.6   -2.7    1.8
