          35
 sphere cut out from bulk 
C     0.4    0.6    0.3
C     0.4    0.5    1.8
O     1.4    0.5    2.5
H     0.9   -0.3   -0.1
H     1.0    1.4    0.0
H    -0.6    0.7   -0.1
N    -0.9    0.4    2.4
C    -1.1    0.1    3.8
C    -0.2    1.0    4.7
O     0.5    0.5    5.6
H    -1.7    0.3    1.8
H    -2.1    0.5    4.0
C    -0.9   -1.3    4.2
C    -1.5   -1.6    5.6
C    -0.7   -2.6    6.4
N    -1.0   -2.7    7.8
C    -0.7   -1.7    8.8
N     0.2   -0.8    8.4
N    -1.2   -1.7   10.0
H     0.1   -1.6    4.2
H    -1.4   -1.9    3.5
H    -2.5   -2.1    5.5
H    -1.7   -0.7    6.2
H     0.4   -2.3    6.4
H    -0.7   -3.6    6.0
H    -1.8   -3.2    8.0
H     0.3   -0.1    9.1
H     0.3   -0.5    7.5
H    -1.9   -2.5   10.1
N    -0.2    2.4    4.6
C    -0.9    3.2    3.6
H     0.4    2.9    5.2
H    -1.0    4.2    4.0
H    -1.9    2.8    3.4
H    -0.4    3.2    2.6
