          35
 sphere cut out from bulk 
C    -0.0   -0.3    0.0
C     0.2   -0.1    1.5
O     1.3   -0.2    2.0
H     0.6    0.5   -0.5
H    -1.1   -0.1   -0.3
H     0.3   -1.3   -0.3
N    -1.0    0.1    2.2
C    -1.0    0.1    3.7
C    -2.3   -0.6    4.1
O    -3.2   -0.7    3.3
H    -1.9    0.0    1.8
H    -0.1   -0.4    4.0
C    -1.0    1.6    4.3
C     0.2    2.4    3.9
C     0.4    3.7    4.7
N     0.6    3.6    6.1
C    -0.4    3.6    7.1
N     0.1    3.2    8.3
N    -1.6    3.8    7.0
H    -1.0    1.4    5.4
H    -1.9    2.1    4.0
H     0.2    2.6    2.8
H     1.2    1.8    4.1
H    -0.5    4.3    4.6
H     1.2    4.3    4.2
H     1.5    3.0    6.3
H    -0.6    3.4    9.1
H     1.0    3.7    8.6
H    -1.9    3.9    6.0
N    -2.3   -1.1    5.4
C    -3.4   -1.7    6.0
H    -1.4   -0.9    6.0
H    -3.2   -2.7    6.4
H    -4.2   -1.8    5.2
H    -3.8   -1.1    6.8
