          35
 sphere cut out from bulk 
C    -0.5   -2.3   -0.6
C     0.2   -1.8    0.7
O     1.4   -2.1    0.9
H    -0.8   -1.5   -1.2
H    -1.3   -3.0   -0.3
H     0.3   -2.9   -1.2
N    -0.5   -1.0    1.5
C    -1.9   -0.6    1.4
C    -1.9    0.9    1.8
O    -2.0    1.3    2.9
H     0.0   -0.7    2.3
H    -2.2   -0.7    0.4
C    -2.8   -1.4    2.3
C    -4.2   -1.0    2.4
C    -5.0   -0.9    1.1
N    -5.0   -2.1    0.3
C    -4.2   -2.4   -0.8
N    -4.0   -1.3   -1.6
N    -3.8   -3.6   -1.0
H    -2.4   -1.4    3.4
H    -2.7   -2.5    2.0
H    -4.8   -1.7    3.0
H    -4.3   -0.0    2.9
H    -4.5   -0.1    0.4
H    -6.0   -0.6    1.2
H    -5.1   -3.0    0.8
H    -3.6   -1.6   -2.5
H    -4.8   -0.7   -1.8
H    -3.4   -3.7   -1.9
N    -1.8    1.8    0.7
C    -1.5    1.5   -0.7
H    -1.7    2.8    1.1
H    -1.5    2.4   -1.2
H    -2.2    0.8   -1.1
H    -0.5    1.1   -0.8
