          35
 sphere cut out from bulk 
C     0.1    1.5    0.1
C    -0.0    0.2    0.8
O     0.9   -0.6    0.8
H    -0.6    1.7   -0.7
H     1.1    1.6   -0.3
H    -0.1    2.3    0.9
N    -1.2   -0.2    1.4
C    -2.6    0.2    1.5
C    -3.6   -0.7    0.8
O    -4.6   -1.1    1.5
H    -1.1   -1.2    1.8
H    -2.9    0.1    2.6
C    -2.9    1.7    1.2
C    -4.3    2.2    1.5
C    -5.3    2.0    0.4
N    -6.6    2.5    0.8
C    -7.2    3.6    0.3
N    -6.3    4.6   -0.1
N    -8.5    3.9    0.3
H    -2.6    1.9    0.1
H    -2.1    2.3    1.8
H    -4.2    3.3    1.8
H    -4.6    1.7    2.4
H    -5.4    1.0    0.1
H    -5.0    2.6   -0.5
H    -7.3    1.8    1.1
H    -6.9    5.5   -0.3
H    -5.6    4.8    0.5
H    -9.1    3.0    0.5
N    -3.4   -1.1   -0.5
C    -2.4   -0.7   -1.4
H    -4.2   -1.7   -0.8
H    -2.8   -1.0   -2.4
H    -1.4   -1.1   -1.2
H    -2.3    0.4   -1.5
