          35
 sphere cut out from bulk 
C    -1.6   -2.4    2.2
C    -1.0   -1.0    2.4
O     0.2   -0.8    2.1
H    -1.3   -2.8    1.2
H    -2.6   -2.5    2.4
H    -1.1   -3.1    3.0
N    -1.9   -0.1    2.8
C    -1.5    1.3    3.1
C    -2.2    1.9    4.3
O    -1.5    2.5    5.2
H    -2.8   -0.4    2.9
H    -0.4    1.3    3.3
C    -1.7    2.3    1.9
C    -1.0    2.0    0.6
C     0.5    2.4    0.5
N     1.4    1.9    1.5
C     1.7    2.6    2.7
N     1.8    4.0    2.5
N     1.8    2.0    3.8
H    -1.4    3.3    2.2
H    -2.8    2.4    1.7
H    -1.5    2.4   -0.3
H    -1.0    0.9    0.4
H     0.5    3.5    0.5
H     0.9    2.1   -0.5
H     1.2    0.9    1.8
H     2.3    4.3    1.6
H     2.1    4.5    3.3
H     2.1    2.6    4.5
N    -3.5    1.7    4.5
C    -4.5    1.1    3.7
H    -3.9    2.1    5.4
H    -5.5    1.6    3.9
H    -4.7   -0.0    3.9
H    -4.3    1.2    2.6
