          35
 sphere cut out from bulk 
C     0.9   -0.1    0.9
C     0.4   -0.2    2.4
O     1.1   -0.2    3.3
H     1.5    0.7    0.8
H     0.1   -0.1    0.2
H     1.5   -1.0    0.8
N    -1.0   -0.2    2.5
C    -1.7   -0.5    3.7
C    -2.8   -1.5    3.4
O    -3.3   -1.6    2.3
H    -1.6   -0.4    1.7
H    -0.9   -0.9    4.4
C    -2.3    0.8    4.3
C    -1.2    1.9    4.6
C    -0.3    1.6    5.7
N    -0.9    1.7    7.0
C    -0.9    0.6    7.9
N    -1.3    0.9    9.2
N    -0.6   -0.6    7.5
H    -2.8    0.6    5.3
H    -3.0    1.2    3.6
H    -1.8    2.9    4.8
H    -0.6    2.1    3.7
H     0.5    2.4    5.7
H     0.2    0.7    5.6
H    -0.9    2.6    7.5
H    -1.6    0.1    9.8
H    -2.0    1.6    9.3
H    -0.6   -1.3    8.2
N    -3.3   -2.2    4.4
C    -2.9   -2.2    5.8
H    -4.1   -2.8    4.2
H    -3.7   -1.8    6.5
H    -2.0   -1.7    6.0
H    -2.8   -3.3    6.2
