          35
 sphere cut out from bulk 
C     0.5    0.5    1.3
C     0.1    0.2    2.7
O     0.9    0.2    3.7
H     0.0    1.5    1.0
H     0.3   -0.2    0.6
H     1.6    0.7    1.3
N    -1.2   -0.2    3.0
C    -2.3   -0.4    2.0
C    -2.0   -1.6    1.1
O    -1.8   -2.7    1.6
H    -1.4   -0.6    3.9
H    -3.1   -0.8    2.6
C    -2.9    0.9    1.4
C    -3.4    1.9    2.5
C    -2.2    2.9    3.0
N    -2.7    4.0    3.9
C    -3.4    5.0    3.4
N    -3.9    5.9    4.4
N    -3.5    5.2    2.1
H    -3.8    0.7    0.8
H    -2.2    1.5    0.8
H    -3.8    1.4    3.4
H    -4.2    2.6    2.1
H    -1.8    3.4    2.2
H    -1.5    2.4    3.6
H    -3.0    3.7    4.8
H    -4.2    6.8    4.0
H    -3.3    6.0    5.2
H    -3.9    6.1    1.9
N    -2.0   -1.5   -0.3
C    -2.2   -0.4   -1.2
H    -1.9   -2.4   -0.7
H    -1.4    0.5   -1.0
H    -3.2    0.1   -1.3
H    -1.9   -0.7   -2.2
