          35
 sphere cut out from bulk 
C    -0.3    0.1   -0.0
C    -0.2    0.1    1.5
O     0.8   -0.0    2.1
H    -1.4    0.2   -0.4
H     0.1   -0.8   -0.4
H     0.3    0.9   -0.4
N    -1.4    0.2    2.1
C    -1.7    0.1    3.6
C    -1.2    1.4    4.4
O    -1.9    2.0    5.1
H    -2.3    0.3    1.6
H    -2.8    0.2    3.7
C    -1.2   -1.2    4.2
C    -1.5   -1.3    5.7
C    -1.1   -2.7    6.3
N    -2.0   -3.8    5.7
C    -1.7   -5.1    5.9
N    -2.7   -5.9    5.4
N    -0.7   -5.6    6.5
H    -0.1   -1.3    4.0
H    -1.7   -2.0    3.6
H    -2.6   -1.1    5.9
H    -0.9   -0.6    6.2
H    -1.2   -2.7    7.4
H    -0.1   -3.0    6.0
H    -3.0   -3.5    5.7
H    -2.5   -6.9    5.5
H    -3.1   -5.7    4.5
H    -0.1   -4.9    6.9
N     0.2    1.6    4.3
C     0.8    2.7    5.0
H     0.7    1.1    3.6
H     1.6    2.4    5.5
H     0.1    3.2    5.6
H     1.1    3.5    4.2
