          35
 sphere cut out from bulk 
C    -1.0    0.4   -0.0
C    -0.8    0.2    1.5
O     0.3    0.3    2.0
H    -0.6    1.3   -0.4
H    -2.1    0.3   -0.3
H    -0.5   -0.5   -0.5
N    -1.9    0.2    2.2
C    -1.9   -0.1    3.6
C    -3.3   -0.6    4.0
O    -4.1   -0.9    3.1
H    -2.8   -0.1    1.8
H    -1.2   -0.9    3.8
C    -1.4    1.1    4.5
C    -0.5    0.7    5.6
C    -0.3    1.8    6.7
N    -1.5    2.5    7.2
C    -2.5    1.8    7.8
N    -3.5    2.7    8.3
N    -2.6    0.6    7.9
H    -2.3    1.7    4.8
H    -0.9    1.8    3.8
H     0.5    0.4    5.2
H    -0.9   -0.2    6.1
H     0.3    2.6    6.3
H     0.2    1.4    7.6
H    -1.7    3.4    6.8
H    -4.2    2.3    8.9
H    -3.1    3.6    8.8
H    -3.3    0.3    8.6
N    -3.6   -0.7    5.3
C    -4.9   -1.2    5.8
H    -3.0   -0.3    6.1
H    -5.1   -2.1    5.2
H    -5.7   -0.5    5.6
H    -4.8   -1.4    6.9
