          35
 sphere cut out from bulk 
C    -0.2    1.2    0.1
C    -0.5    0.5    1.4
O     0.3    0.5    2.3
H     0.8    0.9   -0.3
H    -0.1    2.3    0.3
H    -1.0    1.1   -0.7
N    -1.6   -0.2    1.4
C    -2.0   -1.0    2.5
C    -3.0   -2.1    2.0
O    -3.5   -1.9    0.9
H    -2.2   -0.3    0.6
H    -1.1   -1.5    2.9
C    -2.6   -0.2    3.7
C    -4.0    0.5    3.3
C    -4.6    1.1    4.6
N    -5.0    0.2    5.6
C    -5.8   -0.9    5.4
N    -6.9   -0.6    4.7
N    -5.5   -2.1    5.9
H    -1.9    0.6    4.0
H    -2.8   -0.9    4.5
H    -4.7   -0.2    2.9
H    -3.8    1.2    2.6
H    -5.5    1.6    4.2
H    -4.0    1.9    5.0
H    -4.2   -0.1    6.2
H    -7.3    0.3    4.8
H    -7.6   -1.4    4.7
H    -6.2   -2.7    5.8
N    -3.3   -3.1    2.8
C    -2.8   -3.5    4.1
H    -4.0   -3.7    2.4
H    -2.7   -4.6    4.2
H    -3.5   -3.1    4.9
H    -1.8   -3.1    4.2
