          35
 sphere cut out from bulk 
C     0.8    1.1    0.9
C     0.2    2.4    1.3
O     0.8    3.4    1.5
H     0.5    0.7   -0.0
H     0.6    0.3    1.7
H     1.9    1.2    0.9
N    -1.2    2.4    1.5
C    -2.1    1.3    1.4
C    -3.5    1.9    0.9
O    -3.8    3.0    1.3
H    -1.6    3.3    1.7
H    -1.8    0.6    0.6
C    -2.3    0.4    2.7
C    -2.9    1.2    3.9
C    -4.4    0.9    3.9
N    -5.1    1.9    4.9
C    -6.1    2.7    4.5
N    -6.2    3.1    3.2
N    -6.9    3.1    5.5
H    -1.3    0.1    3.0
H    -2.8   -0.5    2.5
H    -2.7    2.2    3.8
H    -2.5    0.8    4.8
H    -4.6   -0.1    4.2
H    -4.9    1.1    3.0
H    -5.2    1.6    5.8
H    -6.8    3.9    3.0
H    -5.3    3.2    2.7
H    -7.6    3.8    5.2
N    -4.3    1.1    0.3
C    -5.7    1.5   -0.1
H    -4.0    0.1    0.1
H    -6.3    1.6    0.8
H    -6.1    0.7   -0.8
H    -5.6    2.4   -0.6
