          35
 sphere cut out from bulk 
C     0.3    1.3    1.3
C     0.2    0.2    2.3
O     1.1   -0.0    3.2
H     1.3    1.8    1.4
H    -0.5    2.0    1.4
H     0.2    0.9    0.3
N    -0.9   -0.6    2.3
C    -2.1   -0.4    1.4
C    -3.0    0.8    1.7
O    -3.7    1.2    0.7
H    -1.0   -1.3    3.0
H    -1.7   -0.2    0.4
C    -2.9   -1.8    1.3
C    -3.6   -2.2    2.6
C    -4.4   -3.5    2.5
N    -3.5   -4.7    2.3
C    -3.3   -5.2    1.0
N    -2.4   -6.3    1.1
N    -3.8   -4.9   -0.1
H    -2.2   -2.5    1.0
H    -3.6   -1.6    0.5
H    -4.3   -1.4    2.9
H    -2.9   -2.2    3.5
H    -5.1   -3.4    1.7
H    -5.0   -3.6    3.4
H    -2.9   -4.9    3.0
H    -2.5   -6.9    1.9
H    -2.3   -6.7    0.2
H    -4.3   -4.0   -0.1
N    -3.1    1.4    2.9
C    -2.5    1.1    4.2
H    -3.8    2.1    2.9
H    -2.6   -0.0    4.5
H    -3.0    1.6    4.9
H    -1.4    1.3    4.2
