          35
 sphere cut out from bulk 
C    -1.1   -1.0    1.9
C    -1.4    0.3    2.5
O    -0.8    0.8    3.4
H    -0.6   -1.6    2.7
H    -0.4   -0.9    1.1
H    -2.0   -1.6    1.5
N    -2.5    1.0    2.0
C    -3.2    0.8    0.7
C    -4.2   -0.4    0.8
O    -4.5   -1.0   -0.2
H    -2.6    2.0    2.4
H    -3.9    1.7    0.7
C    -2.4    0.8   -0.6
C    -1.1    1.7   -0.7
C    -1.3    3.2   -0.2
N    -2.5    3.9   -0.7
C    -3.6    4.1    0.1
N    -3.4    4.2    1.5
N    -4.8    4.2   -0.3
H    -3.1    1.1   -1.4
H    -2.1   -0.2   -0.8
H    -0.8    1.7   -1.7
H    -0.3    1.2   -0.1
H    -0.4    3.7   -0.5
H    -1.3    3.2    0.9
H    -2.7    3.8   -1.7
H    -2.6    4.8    1.7
H    -4.2    4.5    1.9
H    -4.9    3.9   -1.3
N    -4.6   -0.7    2.0
C    -5.6   -1.8    2.3
H    -4.2   -0.2    2.8
H    -6.5   -1.4    2.8
H    -5.1   -2.6    2.9
H    -5.8   -2.2    1.3
