          35
 sphere cut out from bulk 
C     0.3   -0.2    1.0
C    -0.4   -0.2    2.3
O     0.1    0.2    3.3
H     1.3   -0.8    1.1
H     0.6    0.8    0.7
H    -0.2   -0.7    0.1
N    -1.6   -0.7    2.3
C    -2.5   -0.8    3.5
C    -2.1   -2.1    4.3
O    -2.8   -3.1    4.2
H    -2.0   -1.2    1.4
H    -2.2    0.1    4.1
C    -4.0   -0.7    3.1
C    -4.9   -0.6    4.3
C    -4.7    0.7    5.1
N    -5.7    0.8    6.2
C    -5.7    1.8    7.1
N    -6.8    1.8    7.9
N    -4.8    2.7    7.2
H    -4.2   -1.6    2.5
H    -4.1    0.1    2.4
H    -4.8   -1.5    5.0
H    -6.0   -0.6    3.9
H    -4.8    1.6    4.4
H    -3.7    0.7    5.6
H    -6.7    0.5    5.9
H    -6.7    2.5    8.7
H    -7.1    0.8    8.3
H    -4.2    2.7    6.5
N    -1.0   -1.9    5.0
C    -0.5   -3.0    5.8
H    -0.5   -1.1    4.9
H    -0.1   -2.7    6.8
H     0.4   -3.5    5.3
H    -1.2   -3.8    5.9
