          35
 sphere cut out from bulk 
C    -0.3    0.2   -0.4
C     0.2   -0.0    1.0
O     1.4   -0.3    1.2
H     0.5    0.3   -1.1
H    -0.9    1.1   -0.4
H    -1.0   -0.6   -0.7
N    -0.6   -0.0    2.1
C    -2.1    0.1    2.2
C    -2.8   -1.0    1.4
O    -2.7   -2.1    1.9
H    -0.2   -0.3    2.9
H    -2.3   -0.2    3.2
C    -2.5    1.6    2.1
C    -4.0    1.9    2.4
C    -4.6    1.2    3.6
N    -6.1    1.5    3.7
C    -7.0    0.9    2.8
N    -8.2    1.5    2.9
N    -6.8   -0.0    1.9
H    -2.1    2.1    1.2
H    -1.9    2.1    2.9
H    -4.6    1.7    1.5
H    -4.1    3.0    2.5
H    -4.2    1.6    4.5
H    -4.5    0.2    3.5
H    -6.3    2.5    3.9
H    -8.9    1.0    2.4
H    -8.6    1.7    3.9
H    -5.8   -0.3    1.9
N    -3.6   -0.7    0.3
C    -3.8    0.4   -0.6
H    -4.1   -1.6    0.0
H    -4.8    0.7   -0.7
H    -3.4    0.1   -1.6
H    -3.2    1.2   -0.3
