          35
 sphere cut out from bulk 
C     0.8    1.1   -0.2
C     1.3    1.2    1.2
O     2.0    2.1    1.6
H     0.0    1.8   -0.4
H     0.4    0.1   -0.5
H     1.6    1.3   -0.9
N     0.8    0.2    2.1
C     1.1    0.2    3.5
C     0.7   -1.1    4.0
O     0.0   -1.9    3.4
H     0.3   -0.6    1.8
H     2.2    0.4    3.6
C     0.4    1.4    4.3
C     1.4    2.4    4.9
C     0.9    3.8    4.8
N     0.8    4.3    3.5
C    -0.4    4.5    2.8
N    -1.5    4.9    3.6
N    -0.6    4.4    1.5
H    -0.3    1.0    5.0
H    -0.2    1.9    3.5
H     2.3    2.4    4.4
H     1.6    2.1    6.0
H     1.5    4.5    5.4
H    -0.1    3.9    5.3
H     1.5    3.9    2.9
H    -2.3    5.2    3.0
H    -1.3    5.6    4.2
H     0.3    4.0    1.1
N     1.2   -1.4    5.3
C     0.9   -2.6    6.0
H     1.8   -0.7    5.7
H     0.3   -3.3    5.3
H     0.3   -2.4    6.9
H     1.8   -3.2    6.3
