          35
 sphere cut out from bulk 
C    -0.8   -0.9    1.3
C    -1.1   -0.4    2.7
O    -0.4   -0.7    3.7
H    -1.2   -0.3    0.5
H    -1.1   -1.9    1.2
H     0.3   -0.9    1.2
N    -2.3    0.3    2.9
C    -3.3    0.9    1.9
C    -3.7   -0.1    0.8
O    -3.6    0.2   -0.4
H    -2.4    0.6    3.8
H    -4.2    1.0    2.5
C    -3.0    2.3    1.4
C    -1.7    2.5    0.5
C    -0.5    2.7    1.3
N     0.7    3.0    0.4
C     2.0    3.0    0.9
N     2.9    3.5   -0.1
N     2.4    2.7    2.0
H    -3.0    3.0    2.2
H    -3.9    2.5    0.8
H    -1.9    3.4   -0.1
H    -1.6    1.7   -0.2
H    -0.2    1.8    1.9
H    -0.6    3.5    2.1
H     0.5    3.7   -0.3
H     3.8    3.4    0.2
H     2.7    3.1   -1.0
H     1.7    2.5    2.7
N    -4.1   -1.4    1.2
C    -4.3   -1.9    2.5
H    -4.3   -2.0    0.4
H    -3.4   -2.3    3.0
H    -5.0   -2.7    2.5
H    -4.7   -1.1    3.2
