          35
 sphere cut out from bulk 
C    -0.2    1.4    0.8
C    -0.2    0.5    2.0
O     0.7    0.5    2.8
H    -0.5    2.4    1.1
H    -0.8    1.1   -0.1
H     0.9    1.5    0.4
N    -1.4   -0.2    2.1
C    -1.8   -0.9    3.3
C    -1.6    0.1    4.5
O    -1.9    1.3    4.3
H    -2.1    0.0    1.5
H    -2.9   -1.0    3.2
C    -1.2   -2.3    3.5
C     0.3   -2.5    3.5
C     0.8   -3.8    4.1
N     0.9   -3.7    5.6
C    -0.1   -3.8    6.4
N    -1.1   -4.7    6.1
N    -0.3   -3.0    7.5
H    -1.7   -3.0    2.8
H    -1.6   -2.7    4.5
H     0.8   -1.6    3.9
H     0.6   -2.5    2.4
H     1.8   -4.0    3.7
H     0.2   -4.6    3.8
H     1.6   -3.0    5.8
H    -1.8   -4.8    6.8
H    -0.8   -5.6    5.7
H     0.4   -2.3    7.5
N    -1.4   -0.4    5.8
C    -1.3    0.5    6.9
H    -1.2   -1.4    5.9
H    -2.2    1.1    7.0
H    -0.5    1.1    6.9
H    -1.3   -0.2    7.8
