          35
 sphere cut out from bulk 
C     0.3    1.3    1.8
C     0.2   -0.1    2.3
O     1.0   -0.6    3.1
H    -0.5    1.9    2.2
H     0.2    1.3    0.7
H     1.2    1.7    2.1
N    -0.9   -0.9    1.9
C    -2.0   -0.5    1.1
C    -2.9    0.6    1.7
O    -3.3    1.5    1.1
H    -0.9   -1.8    2.3
H    -1.7    0.0    0.2
C    -2.8   -1.8    0.6
C    -4.0   -1.5   -0.3
C    -5.3   -1.2    0.4
N    -6.5   -1.1   -0.5
C    -7.1   -2.2   -1.0
N    -8.1   -1.9   -1.9
N    -6.9   -3.5   -0.7
H    -3.1   -2.3    1.5
H    -2.1   -2.4    0.1
H    -4.2   -2.4   -0.9
H    -3.8   -0.7   -1.0
H    -5.2   -0.2    0.9
H    -5.5   -1.9    1.2
H    -6.5   -0.3   -1.1
H    -8.6   -2.7   -2.2
H    -8.7   -1.1   -1.7
H    -6.1   -3.6   -0.1
N    -3.3    0.5    3.0
C    -2.9   -0.6    4.0
H    -3.8    1.2    3.4
H    -3.1   -1.6    3.6
H    -3.6   -0.4    4.9
H    -1.9   -0.5    4.4
