          35
 sphere cut out from bulk 
C    -0.2   -0.8    0.3
C    -0.3   -0.7    1.8
O     0.6   -1.2    2.5
H     0.6   -1.6    0.1
H     0.1    0.1   -0.1
H    -1.2   -1.1   -0.1
N    -1.3   -0.0    2.4
C    -2.5    0.5    1.9
C    -3.5   -0.6    1.5
O    -3.2   -1.8    1.2
H    -1.2   -0.1    3.4
H    -3.0    0.9    2.8
C    -2.4    1.6    0.8
C    -1.7    2.9    1.3
C    -2.3    3.5    2.5
N    -3.8    3.4    2.7
C    -4.7    3.6    1.7
N    -4.4    4.7    0.8
N    -5.7    2.8    1.6
H    -3.4    1.8    0.5
H    -1.9    1.2   -0.0
H    -0.7    2.7    1.5
H    -1.8    3.6    0.5
H    -2.0    4.6    2.6
H    -1.9    3.1    3.5
H    -4.1    2.7    3.3
H    -5.2    4.9    0.2
H    -4.0    5.5    1.3
H    -6.4    3.1    0.9
N    -4.8   -0.2    1.4
C    -5.9   -1.1    1.0
H    -5.1    0.8    1.6
H    -6.9   -0.6    1.2
H    -5.8   -2.1    1.5
H    -5.8   -1.3   -0.1
