          35
 sphere cut out from bulk 
C    -0.8   -0.9    0.2
C    -0.5   -0.4    1.6
O     0.6    0.1    1.9
H    -1.8   -1.1    0.1
H    -0.2   -1.8    0.1
H    -0.4   -0.2   -0.5
N    -1.5   -0.5    2.6
C    -1.4   -0.2    4.0
C    -0.6    1.1    4.3
O     0.3    1.0    5.2
H    -2.4   -0.9    2.2
H    -2.5    0.1    4.2
C    -1.1   -1.4    4.9
C     0.2   -2.1    4.9
C     0.6   -2.9    3.6
N    -0.4   -3.7    3.0
C    -0.8   -4.9    3.7
N    -1.9   -5.5    3.0
N    -0.2   -5.3    4.8
H    -1.9   -2.1    4.7
H    -1.3   -1.0    5.9
H     0.2   -2.8    5.7
H     1.0   -1.3    5.1
H     1.5   -3.5    3.9
H     1.0   -2.2    2.8
H    -1.1   -3.2    2.5
H    -2.1   -6.4    3.4
H    -1.8   -5.5    2.0
H    -0.6   -6.2    5.0
N    -0.9    2.2    3.7
C    -1.8    2.5    2.6
H    -0.2    3.0    3.9
H    -2.1    3.6    2.6
H    -2.8    1.9    2.8
H    -1.4    2.2    1.6
