          35
 sphere cut out from bulk 
C    -2.4    1.1    0.7
C    -1.6    0.7    1.9
O    -0.5    0.2    1.8
H    -3.3    1.7    0.9
H    -2.7    0.2    0.1
H    -1.8    1.7    0.1
N    -2.3    0.7    3.1
C    -1.9    0.2    4.4
C    -1.5    1.2    5.5
O    -2.1    1.2    6.5
H    -3.2    1.1    3.0
H    -2.9   -0.1    4.8
C    -1.0   -1.0    4.4
C    -0.8   -1.7    5.8
C    -2.1   -2.2    6.4
N    -2.9   -3.2    5.6
C    -3.9   -2.9    4.8
N    -4.7   -1.8    5.1
N    -4.3   -3.5    3.7
H    -0.0   -0.8    4.0
H    -1.4   -1.8    3.7
H    -0.4   -1.0    6.5
H    -0.1   -2.5    5.6
H    -2.8   -1.4    6.7
H    -1.9   -2.7    7.4
H    -2.3   -4.0    5.3
H    -5.5   -1.8    4.6
H    -4.9   -1.7    6.1
H    -3.5   -4.2    3.4
N    -0.5    2.1    5.2
C     0.3    2.3    4.0
H    -0.4    2.8    6.0
H     1.3    2.6    4.3
H    -0.1    3.1    3.4
H     0.3    1.4    3.4
