          35
 sphere cut out from bulk 
C    -0.3   -0.2    0.0
C    -0.1    0.0    1.5
O     1.0    0.3    2.0
H     0.2   -1.1   -0.2
H     0.1    0.6   -0.5
H    -1.4   -0.4   -0.3
N    -1.3   -0.1    2.3
C    -1.5    0.0    3.7
C    -2.2    1.4    4.2
O    -3.2    1.3    4.9
H    -2.1   -0.3    1.7
H    -2.3   -0.7    3.9
C    -0.3   -0.3    4.6
C     0.2   -1.8    4.5
C     1.2   -2.1    5.5
N     0.7   -2.1    6.9
C    -0.0   -3.2    7.4
N    -0.4   -3.0    8.7
N    -0.3   -4.3    6.8
H    -0.7   -0.2    5.7
H     0.5    0.4    4.5
H     0.7   -1.9    3.5
H    -0.7   -2.5    4.5
H     2.1   -1.4    5.5
H     1.7   -3.1    5.3
H     1.2   -1.6    7.6
H    -1.0   -3.8    9.0
H    -0.8   -2.1    8.9
H     0.1   -4.4    5.9
N    -1.6    2.6    3.8
C    -0.5    2.9    3.0
H    -2.2    3.3    4.2
H     0.3    2.1    3.0
H    -0.0    3.8    3.4
H    -0.8    3.1    2.0
