          35
 sphere cut out from bulk 
C    -0.3    0.5   -0.2
C     0.1    0.3    1.2
O     1.3    0.2    1.6
H     0.7    0.6   -0.8
H    -0.9    1.4   -0.3
H    -0.8   -0.4   -0.6
N    -0.9    0.1    2.1
C    -2.4   -0.0    1.9
C    -3.1    0.7    3.0
O    -3.4    0.1    4.0
H    -0.6   -0.1    3.1
H    -2.5    0.5    0.9
C    -2.8   -1.5    1.7
C    -4.1   -1.6    0.9
C    -5.4   -1.1    1.6
N    -6.6   -1.4    1.0
C    -7.2   -2.7    1.1
N    -8.3   -2.9    0.2
N    -6.9   -3.6    1.9
H    -2.9   -1.9    2.7
H    -2.0   -2.0    1.2
H    -4.3   -2.7    0.8
H    -4.0   -1.2   -0.1
H    -5.3    0.0    1.7
H    -5.5   -1.4    2.7
H    -6.8   -1.0    0.1
H    -8.8   -3.7    0.4
H    -8.9   -2.1    0.2
H    -6.0   -3.4    2.4
N    -3.3    2.1    2.9
C    -2.7    2.9    1.8
H    -3.6    2.5    3.7
H    -1.6    2.9    1.8
H    -3.1    4.0    2.0
H    -3.1    2.7    0.8
