          35
 sphere cut out from bulk 
C     0.1   -1.9    0.5
C     0.8   -0.7    1.2
O     2.0   -0.5    1.1
H    -0.6   -1.6   -0.2
H    -0.4   -2.6    1.2
H     0.9   -2.5   -0.0
N    -0.1    0.1    2.0
C    -1.5   -0.0    2.0
C    -2.2    0.8    0.9
O    -1.7    1.9    0.6
H     0.4    0.9    2.3
H    -1.8   -1.1    1.9
C    -2.0    0.3    3.5
C    -3.1    1.4    3.6
C    -2.6    2.9    3.5
N    -1.5    3.2    4.4
C    -0.2    3.1    4.0
N     0.7    3.0    5.1
N     0.3    2.9    2.9
H    -1.2    0.6    4.1
H    -2.5   -0.6    3.9
H    -3.5    1.3    4.6
H    -3.9    1.3    2.9
H    -3.4    3.6    3.7
H    -2.3    3.1    2.5
H    -1.7    3.0    5.4
H     0.5    3.7    5.9
H     1.7    3.1    4.8
H    -0.4    2.9    2.1
N    -3.3    0.2    0.4
C    -4.0   -1.0    0.7
H    -3.7    0.8   -0.3
H    -4.9   -1.1    0.1
H    -4.2   -1.1    1.8
H    -3.3   -1.9    0.5
