          35
 sphere cut out from bulk 
C    -0.3    0.1   -0.3
C    -0.0    0.5    1.1
O     1.0    1.0    1.5
H     0.7    0.1   -0.8
H    -0.8    0.9   -0.8
H    -0.8   -0.8   -0.5
N    -1.0    0.2    2.0
C    -2.3   -0.5    1.9
C    -2.1   -2.0    1.3
O    -2.6   -2.3    0.3
H    -0.8    0.5    3.0
H    -2.7   -0.6    2.9
C    -3.4    0.2    1.1
C    -4.8   -0.2    1.3
C    -5.8    0.6    0.5
N    -7.2    0.1    0.8
C    -8.3    0.6    0.1
N    -9.5    0.1    0.6
N    -8.2    1.4   -0.9
H    -3.1    0.1   -0.0
H    -3.3    1.3    1.3
H    -5.0   -0.1    2.4
H    -4.9   -1.3    1.1
H    -5.6    0.4   -0.6
H    -5.7    1.6    0.7
H    -7.4   -0.1    1.8
H    -9.5   -0.8    0.8
H   -10.2    0.4   -0.0
H    -7.3    1.8   -1.1
N    -1.4   -2.8    2.1
C    -0.7   -2.6    3.3
H    -1.2   -3.7    1.6
H    -0.4   -3.5    3.8
H    -1.3   -2.0    4.0
H     0.2   -2.0    3.2
