          35
 sphere cut out from bulk 
C    -1.6   -0.1    0.2
C    -1.2   -0.4    1.6
O    -0.5   -1.4    1.9
H    -0.7   -0.1   -0.4
H    -2.1    0.8    0.0
H    -2.1   -1.0   -0.2
N    -1.6    0.5    2.5
C    -1.3    0.4    4.0
C    -2.6   -0.2    4.6
O    -3.6    0.4    4.8
H    -2.2    1.2    2.2
H    -0.5   -0.3    4.0
C    -1.0    1.8    4.6
C    -0.7    1.7    6.1
C    -1.3    2.9    6.8
N    -2.7    3.0    6.8
C    -3.4    3.8    5.9
N    -4.6    3.3    5.5
N    -3.0    5.0    5.5
H    -1.9    2.4    4.4
H    -0.2    2.2    4.0
H     0.4    1.6    6.2
H    -1.2    0.8    6.5
H    -0.8    3.9    6.4
H    -0.9    2.9    7.9
H    -3.2    2.1    7.0
H    -5.1    3.9    4.8
H    -4.5    2.3    5.2
H    -2.2    5.3    6.0
N    -2.5   -1.5    5.0
C    -1.4   -2.5    5.0
H    -3.4   -1.9    5.5
H    -0.6   -2.3    5.8
H    -0.9   -2.4    4.0
H    -1.8   -3.5    5.1
