          35
 sphere cut out from bulk 
C     0.3   -2.4   -0.3
C     0.9   -1.8    1.0
O     2.0   -2.2    1.4
H     1.1   -2.9   -0.8
H    -0.2   -1.6   -0.9
H    -0.5   -3.1    0.0
N     0.3   -0.8    1.6
C    -0.9   -0.1    1.2
C    -0.9    1.3    1.9
O     0.0    1.6    2.7
H     0.8   -0.3    2.3
H    -0.9    0.2    0.1
C    -2.2   -0.8    1.4
C    -2.5   -1.1    2.9
C    -4.0   -1.1    3.2
N    -4.7    0.2    3.0
C    -5.2    0.6    1.8
N    -6.1   -0.4    1.3
N    -4.9    1.6    1.1
H    -2.2   -1.8    0.9
H    -3.1   -0.3    1.0
H    -2.1   -2.0    3.3
H    -2.1   -0.3    3.6
H    -4.2   -1.3    4.3
H    -4.6   -1.8    2.7
H    -4.1    1.0    3.3
H    -6.6   -0.1    0.4
H    -6.7   -0.9    2.0
H    -5.5    1.9    0.4
N    -2.0    2.1    1.8
C    -2.1    3.4    2.4
H    -2.8    1.8    1.3
H    -1.8    3.3    3.5
H    -3.1    3.8    2.3
H    -1.4    4.1    2.0
