          35
 sphere cut out from bulk 
C    -1.2    0.6   -0.7
C    -0.6    0.8    0.7
O     0.6    1.3    0.8
H    -1.2    1.6   -1.1
H    -2.1    0.1   -0.7
H    -0.5   -0.0   -1.3
N    -1.2    0.3    1.8
C    -2.7    0.0    2.0
C    -3.1   -1.2    1.2
O    -4.3   -1.4    0.9
H    -0.7    0.5    2.7
H    -2.8   -0.2    3.0
C    -3.5    1.2    1.7
C    -3.3    2.4    2.6
C    -2.9    3.7    1.9
N    -1.7    3.6    1.2
C    -1.4    4.4    0.1
N    -0.2    4.0   -0.5
N    -2.2    5.2   -0.3
H    -4.6    0.9    1.8
H    -3.4    1.6    0.6
H    -2.5    2.2    3.4
H    -4.2    2.6    3.2
H    -2.9    4.6    2.6
H    -3.7    4.0    1.2
H    -0.9    3.2    1.7
H     0.3    4.7   -1.0
H     0.4    3.3   -0.1
H    -1.9    5.6   -1.2
N    -2.2   -2.2    1.0
C    -2.5   -3.5    0.4
H    -1.2   -1.9    1.3
H    -2.1   -4.3    1.0
H    -1.9   -3.5   -0.6
H    -3.5   -3.5    0.2
