          35
 sphere cut out from bulk 
C    -1.0   -0.1    0.2
C    -1.2    0.6    1.5
O    -0.9    1.8    1.6
H    -1.3   -1.2    0.2
H     0.1   -0.1   -0.1
H    -1.5    0.4   -0.6
N    -1.8   -0.1    2.5
C    -1.9    0.4    3.8
C    -2.0   -0.8    4.8
O    -2.1   -1.9    4.4
H    -1.9   -1.1    2.5
H    -1.1    1.1    4.1
C    -3.2    1.3    4.0
C    -4.5    0.5    3.9
C    -5.8    1.3    4.0
N    -5.8    2.2    5.2
C    -5.7    1.6    6.5
N    -6.2    0.4    6.7
N    -5.1    2.2    7.5
H    -3.2    2.0    3.1
H    -3.2    1.8    4.9
H    -4.5   -0.3    4.6
H    -4.6   -0.0    2.9
H    -6.7    0.7    4.0
H    -5.9    2.0    3.2
H    -5.4    3.1    5.1
H    -6.2    0.1    7.7
H    -7.1    0.2    6.2
H    -4.6    3.1    7.2
N    -1.9   -0.5    6.1
C    -1.7    0.7    6.8
H    -2.0   -1.4    6.7
H    -1.2    1.5    6.2
H    -1.1    0.6    7.7
H    -2.7    1.1    7.2
