          35
 sphere cut out from bulk 
C    -0.1    0.3    0.2
C    -0.3    0.2    1.7
O     0.1    1.0    2.5
H     1.0    0.4   -0.0
H    -0.6    1.2   -0.2
H    -0.5   -0.6   -0.4
N    -0.9   -0.9    2.1
C    -1.3   -1.2    3.5
C    -0.1   -1.8    4.4
O    -0.2   -2.8    4.9
H    -1.2   -1.6    1.5
H    -1.5   -0.2    4.0
C    -2.6   -2.0    3.6
C    -2.5   -3.4    2.9
C    -3.9   -4.2    3.1
N    -5.0   -3.5    2.4
C    -6.2   -3.1    3.0
N    -6.1   -2.8    4.4
N    -7.3   -3.0    2.5
H    -3.4   -1.4    3.2
H    -2.8   -2.2    4.7
H    -1.7   -4.0    3.4
H    -2.3   -3.3    1.9
H    -4.1   -4.3    4.2
H    -3.8   -5.2    2.7
H    -5.1   -3.8    1.4
H    -6.9   -2.4    4.7
H    -5.2   -2.3    4.7
H    -7.3   -3.4    1.5
N     0.9   -0.9    4.4
C     2.1   -1.3    5.1
H     0.9   -0.0    3.9
H     2.4   -0.5    5.9
H     3.0   -1.3    4.4
H     2.0   -2.2    5.6
