          35
 sphere cut out from bulk 
C     0.6   -0.0    1.6
C    -0.5   -0.7    2.5
O    -0.2   -1.6    3.2
H     1.6   -0.5    1.8
H     0.3   -0.1    0.6
H     0.7    1.1    1.9
N    -1.7   -0.2    2.5
C    -2.4    0.9    1.7
C    -2.5    0.4    0.2
O    -3.3   -0.5   -0.0
H    -2.4   -0.8    3.0
H    -3.4    0.8    2.0
C    -1.9    2.3    2.0
C    -2.9    3.4    1.6
C    -4.1    3.5    2.5
N    -3.8    3.8    3.9
C    -3.5    5.1    4.3
N    -3.3    5.2    5.7
N    -3.5    6.2    3.6
H    -0.9    2.5    1.6
H    -1.8    2.4    3.1
H    -3.2    3.2    0.6
H    -2.3    4.4    1.6
H    -4.7    2.6    2.5
H    -4.8    4.3    2.0
H    -4.2    3.2    4.6
H    -3.0    6.1    6.0
H    -2.7    4.5    6.1
H    -3.8    6.0    2.6
N    -1.8    1.0   -0.9
C    -0.9    2.1   -1.0
H    -2.1    0.6   -1.7
H    -0.5    2.1   -2.0
H    -0.0    2.0   -0.3
H    -1.4    3.1   -0.7
