          35
 sphere cut out from bulk 
C     1.5    0.4    2.4
C     0.6    0.6    3.5
O     1.0    0.8    4.7
H     2.0    1.3    2.2
H     1.1   -0.0    1.5
H     2.3   -0.3    2.7
N    -0.8    0.4    3.4
C    -1.7    0.2    2.3
C    -1.5   -1.2    1.6
O    -0.5   -1.8    1.6
H    -1.3    0.6    4.3
H    -2.7    0.1    2.8
C    -1.9    1.4    1.3
C    -0.8    1.8    0.4
C    -0.5    0.9   -0.8
N    -1.6    0.3   -1.5
C    -2.6    1.1   -2.1
N    -2.1    2.2   -2.7
N    -3.8    0.7   -2.1
H    -2.2    2.2    2.0
H    -2.9    1.2    0.7
H     0.1    2.1    0.9
H    -1.2    2.8   -0.1
H     0.1   -0.0   -0.4
H     0.2    1.4   -1.5
H    -2.0   -0.5   -1.1
H    -1.2    2.2   -3.2
H    -2.8    2.7   -3.3
H    -4.4    1.3   -2.7
N    -2.6   -1.7    0.9
C    -4.0   -1.2    0.9
H    -2.4   -2.6    0.5
H    -4.7   -2.1    0.7
H    -4.2   -0.6    0.0
H    -4.3   -0.8    1.8
