          35
 sphere cut out from bulk 
C    -1.0    0.1   -1.7
C     0.0    0.1   -0.6
O     1.2   -0.0   -0.8
H    -1.3    1.1   -1.9
H    -1.8   -0.6   -1.5
H    -0.5   -0.3   -2.6
N    -0.4    0.3    0.7
C    -1.8    0.2    1.2
C    -2.4   -1.2    1.0
O    -1.7   -2.2    1.1
H     0.3    0.1    1.4
H    -1.7    0.3    2.3
C    -2.7    1.4    0.8
C    -2.0    2.8    0.9
C    -1.5    3.2    2.3
N    -0.9    4.5    2.4
C     0.4    4.8    2.0
N     0.7    6.1    2.1
N     1.3    3.9    1.6
H    -3.6    1.4    1.4
H    -3.0    1.3   -0.2
H    -2.7    3.6    0.5
H    -1.1    2.8    0.2
H    -0.8    2.5    2.7
H    -2.4    3.2    3.0
H    -1.6    5.3    2.3
H     1.7    6.2    2.0
H     0.4    6.6    3.0
H     0.9    3.0    1.5
N    -3.8   -1.2    0.8
C    -4.5   -2.5    0.6
H    -4.3   -0.3    0.7
H    -5.3   -2.6    1.4
H    -3.8   -3.3    0.8
H    -4.9   -2.5   -0.4
