          35
 sphere cut out from bulk 
C     0.1   -0.2    0.0
C     0.1    0.2    1.5
O     1.2    0.3    2.1
H     1.1   -0.3   -0.3
H    -0.5    0.6   -0.6
H    -0.5   -1.2   -0.1
N    -1.1    0.3    2.2
C    -2.4    0.2    1.6
C    -3.3    1.2    2.5
O    -3.0    1.5    3.6
H    -1.0    0.7    3.1
H    -2.4    0.6    0.6
C    -3.0   -1.2    1.7
C    -3.1   -1.8    3.1
C    -3.7   -3.2    3.0
N    -3.8   -3.9    4.3
C    -2.7   -4.6    4.8
N    -3.0   -5.0    6.1
N    -1.6   -4.8    4.3
H    -2.4   -1.8    1.0
H    -4.0   -1.2    1.2
H    -3.7   -1.2    3.7
H    -2.1   -1.9    3.5
H    -3.2   -3.9    2.3
H    -4.8   -3.1    2.6
H    -4.4   -3.5    5.0
H    -2.2   -5.6    6.4
H    -3.9   -5.5    6.2
H    -1.4   -4.3    3.4
N    -4.4    1.6    1.9
C    -5.4    2.4    2.6
H    -4.6    1.3    0.9
H    -5.5    3.4    2.0
H    -5.0    2.6    3.6
H    -6.4    1.9    2.6
