          35
 sphere cut out from bulk 
C    -1.0   -0.3    1.3
C    -0.7   -0.3    2.8
O    -0.1   -1.2    3.3
H    -0.2   -0.9    0.8
H    -1.1    0.7    0.8
H    -1.9   -0.8    1.1
N    -1.2    0.7    3.5
C    -1.8    2.0    3.2
C    -2.9    1.9    2.1
O    -2.9    2.6    1.1
H    -0.9    0.6    4.5
H    -2.4    2.3    4.1
C    -0.8    3.2    2.9
C     0.4    2.9    2.0
C     0.2    3.1    0.5
N     1.4    2.8   -0.2
C     1.7    3.3   -1.4
N     2.8    2.7   -2.1
N     1.0    4.3   -1.9
H    -0.4    3.4    3.9
H    -1.4    4.0    2.5
H     0.8    1.9    2.2
H     1.2    3.5    2.4
H     0.1    4.2    0.3
H    -0.7    2.6    0.1
H     1.7    1.8   -0.1
H     3.1    3.2   -2.9
H     3.6    2.5   -1.4
H     1.4    4.6   -2.8
N    -3.9    1.0    2.3
C    -4.1    0.1    3.4
H    -4.6    1.0    1.6
H    -3.5   -0.8    3.4
H    -5.2   -0.1    3.5
H    -3.9    0.7    4.4
