          35
 sphere cut out from bulk 
C    -1.9   -2.5    2.5
C    -1.2   -1.2    2.4
O    -1.8   -0.2    1.8
H    -1.3   -3.3    3.0
H    -2.1   -2.9    1.4
H    -2.9   -2.4    3.0
N    -0.0   -1.1    3.1
C     0.7    0.2    3.1
C     2.2   -0.2    3.1
O     2.6   -1.2    3.8
H     0.4   -1.9    3.5
H     0.5    0.7    2.1
C     0.4    1.0    4.3
C     1.0    2.4    4.4
C     0.6    3.4    3.2
N     1.1    4.8    3.4
C     0.4    5.6    4.3
N     1.2    6.8    4.4
N    -0.7    5.5    4.9
H     0.6    0.5    5.2
H    -0.7    1.1    4.3
H     2.1    2.3    4.4
H     0.8    2.9    5.3
H    -0.5    3.4    3.1
H     0.9    3.0    2.3
H     2.1    4.9    3.3
H     1.5    7.2    3.5
H     0.6    7.5    5.0
H    -1.1    4.5    4.8
N     3.0    0.6    2.3
C     4.5    0.4    2.3
H     2.6    1.3    1.8
H     5.0    1.3    2.6
H     4.8    0.1    1.3
H     4.7   -0.4    3.0
