          35
 sphere cut out from bulk 
C    -1.2   -1.1    0.4
C    -0.6   -1.0    1.7
O     0.7   -1.1    1.9
H    -0.8   -0.3   -0.3
H    -2.3   -1.0    0.4
H    -1.0   -2.1   -0.1
N    -1.4   -0.7    2.8
C    -0.9   -0.4    4.1
C    -0.6   -1.7    5.0
O    -1.1   -1.9    6.1
H    -2.4   -0.6    2.6
H     0.0    0.1    4.0
C    -1.9    0.6    4.8
C    -3.4    0.3    4.7
C    -4.0   -1.0    5.2
N    -3.8   -1.2    6.6
C    -4.3   -0.3    7.6
N    -5.6    0.2    7.3
N    -3.7   -0.0    8.7
H    -1.7    1.6    4.5
H    -1.7    0.5    5.9
H    -3.7    0.4    3.6
H    -4.0    1.2    5.2
H    -3.6   -1.9    4.7
H    -5.1   -1.0    5.0
H    -2.9   -1.5    6.8
H    -5.9    0.7    8.1
H    -6.2   -0.4    6.9
H    -2.8   -0.4    8.7
N     0.3   -2.5    4.4
C     0.8   -3.7    5.0
H     0.7   -2.1    3.5
H     1.4   -4.2    4.2
H    -0.0   -4.3    5.3
H     1.4   -3.5    5.8
