          35
 sphere cut out from bulk 
C     0.3   -1.0    0.3
C     0.2   -0.6    1.7
O     1.1   -0.6    2.5
H     1.1   -0.5   -0.2
H    -0.6   -0.9   -0.3
H     0.6   -2.1    0.3
N    -1.1   -0.1    2.0
C    -1.4    0.3    3.4
C    -3.0    0.3    3.4
O    -3.6   -0.1    2.5
H    -1.9   -0.2    1.4
H    -1.1   -0.5    4.1
C    -0.8    1.6    3.9
C    -1.2    2.9    3.1
C    -1.3    4.2    3.9
N    -2.6    4.5    4.4
C    -3.1    4.1    5.6
N    -4.2    4.8    6.1
N    -2.6    3.1    6.3
H     0.3    1.5    3.9
H    -1.1    1.8    5.0
H    -2.2    2.7    2.6
H    -0.5    3.0    2.3
H    -0.9    5.0    3.3
H    -0.6    4.1    4.8
H    -3.2    5.1    3.9
H    -4.9    4.3    6.6
H    -4.6    5.6    5.5
H    -3.0    3.0    7.2
N    -3.6    0.9    4.5
C    -5.0    1.0    4.7
H    -3.0    1.4    5.2
H    -5.2    1.2    5.7
H    -5.5    0.1    4.4
H    -5.4    1.8    4.0
