          35
 sphere cut out from bulk 
C    -0.8    0.8    0.3
C    -0.9    0.3    1.7
O    -0.1   -0.5    2.2
H    -0.5   -0.1   -0.4
H    -0.1    1.6    0.2
H    -1.8    1.1   -0.1
N    -1.8    0.9    2.5
C    -1.9    0.7    3.9
C    -2.8   -0.6    4.2
O    -3.9   -0.5    4.7
H    -2.5    1.5    2.0
H    -0.9    0.4    4.2
C    -2.4    1.9    4.7
C    -1.6    3.2    4.5
C    -0.0    3.0    4.7
N     0.8    2.8    3.5
C     0.9    3.7    2.5
N     0.9    5.0    2.9
N     1.1    3.3    1.3
H    -2.4    1.6    5.8
H    -3.4    2.1    4.4
H    -1.9    4.0    5.2
H    -1.7    3.6    3.5
H     0.2    2.2    5.4
H     0.3    4.0    5.2
H     0.8    1.9    3.2
H     0.6    5.3    3.8
H     0.7    5.7    2.2
H     1.4    4.0    0.7
N    -2.1   -1.7    3.9
C    -2.8   -3.0    4.0
H    -1.2   -1.6    3.5
H    -3.0   -3.4    3.0
H    -3.7   -2.9    4.6
H    -2.2   -3.7    4.6
