          35
 sphere cut out from bulk 
C     0.1    0.9   -0.7
C    -0.3    0.2    0.6
O    -0.8   -0.9    0.7
H     0.9    0.2   -1.1
H     0.6    1.9   -0.6
H    -0.7    0.9   -1.3
N    -0.1    1.0    1.8
C    -0.7    0.6    3.1
C    -2.0    1.3    3.3
O    -2.1    2.6    3.4
H     0.1    2.0    1.6
H    -0.8   -0.5    3.0
C     0.3    1.0    4.2
C    -0.1    0.5    5.5
C     0.9    0.7    6.7
N     2.2   -0.0    6.4
C     2.3   -1.3    6.8
N     3.6   -1.8    6.7
N     1.3   -2.0    7.3
H     0.5    2.1    4.2
H     1.3    0.5    3.9
H    -0.3   -0.6    5.5
H    -1.1    1.0    5.8
H     0.5    0.4    7.6
H     1.2    1.8    6.7
H     3.0    0.5    6.5
H     3.7   -2.8    6.8
H     4.1   -1.5    5.8
H     1.5   -3.0    7.4
N    -3.1    0.5    3.4
C    -3.2   -0.9    3.3
H    -4.0    1.1    3.6
H    -4.2   -1.2    3.2
H    -2.8   -1.4    4.2
H    -2.6   -1.3    2.4
