          35
 sphere cut out from bulk 
C     0.2   -0.1    0.1
C    -0.0   -0.2    1.6
O     0.7   -0.8    2.4
H     1.2    0.4   -0.1
H    -0.5    0.5   -0.5
H     0.3   -1.1   -0.3
N    -1.2    0.4    2.0
C    -1.7    0.3    3.4
C    -3.2   -0.0    3.2
O    -3.9    0.4    2.3
H    -1.9    0.7    1.3
H    -1.2   -0.6    3.8
C    -1.4    1.5    4.2
C     0.0    1.9    4.4
C     0.2    3.1    5.3
N     1.6    3.4    5.4
C     2.1    4.5    6.1
N     3.5    4.7    6.1
N     1.2    5.3    6.6
H    -1.9    1.4    5.2
H    -2.0    2.4    3.8
H     0.5    2.1    3.4
H     0.6    1.0    4.8
H    -0.2    2.9    6.3
H    -0.3    4.0    4.9
H     2.3    2.6    5.4
H     3.8    5.2    7.0
H     4.0    3.9    5.9
H     1.6    6.2    7.0
N    -3.7   -0.7    4.3
C    -5.2   -1.0    4.4
H    -3.1   -1.0    5.0
H    -5.6   -0.5    5.3
H    -5.3   -2.1    4.5
H    -5.7   -0.6    3.5
