          35
 sphere cut out from bulk 
C     0.3   -0.3    2.6
C    -0.6    0.9    2.2
O    -0.2    2.0    2.6
H     1.2    0.1    3.0
H     0.5   -0.9    1.7
H    -0.3   -0.9    3.3
N    -1.6    0.8    1.3
C    -2.4   -0.5    1.2
C    -3.0   -0.5   -0.2
O    -3.7    0.5   -0.6
H    -2.2    1.6    1.2
H    -1.7   -1.3    1.2
C    -3.4   -0.7    2.3
C    -4.5    0.3    2.4
C    -4.2    1.8    2.9
N    -3.7    2.6    1.7
C    -3.4    4.0    1.9
N    -2.4    4.1    2.9
N    -3.9    5.0    1.3
H    -2.9   -0.8    3.2
H    -3.9   -1.7    2.1
H    -5.2   -0.1    3.2
H    -5.2    0.4    1.5
H    -3.4    1.8    3.6
H    -5.0    2.2    3.4
H    -4.4    2.5    0.9
H    -2.1    5.1    3.0
H    -1.7    3.5    2.9
H    -4.7    4.7    0.7
N    -2.9   -1.7   -0.9
C    -3.5   -1.9   -2.2
H    -2.4   -2.4   -0.5
H    -4.2   -2.7   -2.2
H    -2.8   -2.0   -3.0
H    -4.1   -1.0   -2.4
