          35
 sphere cut out from bulk 
C     0.5    0.3    0.2
C     0.1   -0.1    1.6
O     0.9   -0.8    2.4
H     1.5    0.9    0.3
H    -0.2    0.9   -0.2
H     0.8   -0.6   -0.3
N    -1.1    0.3    2.1
C    -1.7   -0.1    3.3
C    -3.1   -0.5    3.0
O    -3.8    0.1    2.1
H    -1.7    0.7    1.4
H    -1.1   -1.0    3.6
C    -1.6    0.9    4.4
C    -0.2    1.3    4.8
C    -0.1    2.3    6.0
N     1.3    2.7    6.2
C     1.7    3.7    7.1
N     0.6    4.5    7.5
N     2.9    4.0    7.4
H    -2.1    0.5    5.3
H    -2.2    1.8    4.1
H     0.3    1.8    3.9
H     0.4    0.4    5.1
H    -0.6    1.9    6.8
H    -0.7    3.2    5.7
H     2.0    2.0    6.1
H     1.0    5.2    8.2
H    -0.2    4.1    7.9
H     3.6    3.5    6.9
N    -3.7   -1.4    3.8
C    -5.1   -1.8    3.8
H    -3.1   -1.9    4.5
H    -5.5   -1.2    3.0
H    -5.6   -1.6    4.7
H    -5.2   -2.9    3.5
