          35
 sphere cut out from bulk 
C     0.2   -0.9    0.2
C     0.0   -0.6    1.7
O     0.9   -0.9    2.6
H     1.1   -0.3   -0.1
H    -0.7   -0.6   -0.3
H     0.5   -1.9    0.1
N    -1.2   -0.1    2.1
C    -1.5    0.1    3.5
C    -3.1    0.0    3.5
O    -3.8    0.1    2.5
H    -1.9   -0.0    1.4
H    -1.1   -0.7    4.1
C    -1.0    1.5    4.0
C    -1.6    2.7    3.3
C    -1.1    4.0    3.9
N    -1.7    4.2    5.2
C    -1.3    5.2    6.0
N    -2.1    5.4    7.2
N    -0.3    6.1    5.9
H     0.1    1.4    4.0
H    -1.3    1.5    5.1
H    -2.7    2.7    3.2
H    -1.2    2.7    2.2
H    -1.4    4.8    3.2
H    -0.0    4.0    4.0
H    -2.7    4.0    5.2
H    -1.7    6.0    7.8
H    -2.3    4.5    7.6
H     0.1    6.0    4.9
N    -3.6   -0.2    4.8
C    -3.0   -0.4    6.1
H    -4.6   -0.2    4.8
H    -3.6   -1.0    6.7
H    -2.8    0.6    6.6
H    -2.0   -0.9    5.9
