          35
 sphere cut out from bulk 
C    -1.7    1.1   -0.3
C    -1.1    0.8    1.1
O     0.0    0.3    1.2
H    -1.0    1.8   -0.8
H    -2.6    1.6   -0.3
H    -1.8    0.2   -0.9
N    -2.0    1.0    2.1
C    -1.6    0.5    3.5
C    -2.8   -0.3    4.1
O    -2.7   -1.5    4.3
H    -2.9    1.3    1.9
H    -0.8   -0.2    3.4
C    -1.1    1.6    4.4
C     0.3    2.1    4.1
C     0.8    3.3    4.9
N     0.8    3.0    6.4
C     1.4    1.9    7.0
N     2.7    1.7    6.5
N     0.8    1.4    8.0
H    -1.1    1.2    5.5
H    -1.8    2.5    4.4
H     0.3    2.4    3.0
H     1.0    1.2    4.1
H     0.2    4.2    4.8
H     1.8    3.5    4.6
H    -0.1    3.1    6.8
H     3.0    0.7    6.6
H     3.0    2.1    5.6
H     1.4    0.7    8.4
N    -4.0    0.3    4.2
C    -4.4    1.7    4.3
H    -4.7   -0.3    4.7
H    -5.5    1.8    4.1
H    -3.9    2.3    3.5
H    -4.2    2.2    5.3
