          35
 sphere cut out from bulk 
C    -1.1   -0.9   -0.3
C    -0.7   -0.3    1.0
O     0.2    0.5    1.1
H    -1.3   -0.1   -1.1
H    -2.0   -1.5   -0.2
H    -0.3   -1.6   -0.6
N    -1.5   -0.5    2.1
C    -1.3   -0.0    3.4
C    -1.2   -1.1    4.5
O    -0.2   -1.0    5.3
H    -2.4   -1.1    1.9
H    -0.3    0.5    3.4
C    -2.4    1.1    3.8
C    -2.2    2.4    3.0
C    -1.3    3.4    3.7
N     0.0    3.0    4.1
C     1.1    3.3    3.4
N     1.0    3.2    2.0
N     2.2    3.8    4.0
H    -2.2    1.2    4.9
H    -3.4    0.6    3.7
H    -3.2    2.8    2.9
H    -1.9    2.2    2.0
H    -1.8    3.8    4.6
H    -1.2    4.3    3.0
H     0.2    3.0    5.1
H     0.6    2.3    1.7
H     1.8    3.5    1.5
H     3.0    3.9    3.4
N    -2.1   -2.1    4.6
C    -3.3   -2.4    3.8
H    -1.9   -2.8    5.3
H    -4.0   -3.0    4.4
H    -3.0   -3.0    2.9
H    -3.8   -1.5    3.5
