          35
 sphere cut out from bulk 
C     0.1   -0.1    0.1
C     0.0    0.2    1.5
O     1.0    0.7    2.2
H    -0.9   -0.4   -0.4
H     0.8   -0.9   -0.1
H     0.5    0.8   -0.5
N    -1.2   -0.0    2.1
C    -1.4    0.1    3.6
C    -1.0    1.4    4.2
O    -0.3    1.5    5.2
H    -1.9   -0.4    1.6
H    -2.5    0.1    3.7
C    -0.8   -1.1    4.4
C    -1.2   -2.5    3.9
C    -2.7   -2.8    3.9
N    -3.0   -4.2    3.5
C    -3.0   -5.2    4.5
N    -3.2   -6.5    4.0
N    -2.9   -4.8    5.7
H    -1.2   -1.0    5.4
H     0.2   -0.9    4.4
H    -0.7   -3.2    4.5
H    -0.8   -2.6    2.9
H    -3.2   -2.1    3.1
H    -3.1   -2.6    4.8
H    -2.7   -4.5    2.6
H    -2.8   -7.2    4.5
H    -3.1   -6.6    3.0
H    -3.0   -5.7    6.3
N    -1.4    2.6    3.5
C    -2.2    2.8    2.4
H    -1.0    3.4    4.0
H    -2.6    3.8    2.4
H    -3.0    2.0    2.3
H    -1.6    2.7    1.4
