          35
 sphere cut out from bulk 
C     0.4    0.3    0.2
C     0.2    0.0    1.6
O     1.1   -0.3    2.4
H     1.2    1.1    0.1
H    -0.5    0.6   -0.4
H     0.8   -0.6   -0.3
N    -1.1    0.2    2.1
C    -1.5    0.1    3.5
C    -1.8   -1.4    3.9
O    -1.5   -1.7    5.1
H    -1.8    0.6    1.4
H    -0.6    0.3    4.1
C    -2.6    1.0    3.8
C    -2.2    2.5    3.9
C    -3.4    3.5    4.0
N    -4.2    3.3    5.3
C    -5.3    2.4    5.4
N    -6.0    2.3    4.2
N    -5.6    1.7    6.4
H    -3.0    0.7    4.8
H    -3.5    0.9    3.1
H    -1.7    2.8    2.9
H    -1.5    2.6    4.7
H    -4.1    3.4    3.2
H    -3.0    4.5    4.0
H    -3.6    3.3    6.1
H    -6.9    1.8    4.4
H    -6.3    3.2    3.8
H    -4.9    1.7    7.1
N    -2.4   -2.2    3.1
C    -2.9   -2.1    1.8
H    -2.5   -3.1    3.6
H    -3.6   -2.9    1.6
H    -2.1   -2.1    1.0
H    -3.5   -1.2    1.7
