          35
 sphere cut out from bulk 
C     0.2   -0.3   -0.1
C     0.4    0.2    1.3
O     1.5    0.3    1.8
H    -0.4    0.3   -0.8
H    -0.1   -1.4   -0.1
H     1.2   -0.3   -0.6
N    -0.8    0.5    1.9
C    -2.1   -0.0    1.6
C    -3.2    1.0    2.0
O    -4.4    0.6    2.1
H    -0.6    0.8    2.9
H    -2.2   -0.2    0.6
C    -2.4   -1.4    2.3
C    -2.2   -1.4    3.8
C    -0.8   -1.8    4.3
N    -0.4   -1.3    5.6
C    -0.2    0.1    5.8
N    -0.7    0.6    7.0
N     0.3    0.9    5.0
H    -1.8   -2.2    1.8
H    -3.4   -1.7    2.1
H    -2.9   -2.1    4.3
H    -2.4   -0.4    4.2
H    -0.0   -1.5    3.6
H    -0.7   -2.9    4.3
H    -0.9   -1.8    6.4
H    -0.6    1.6    7.1
H    -1.6    0.2    7.3
H     0.9    0.4    4.2
N    -2.8    2.3    2.1
C    -3.8    3.3    2.4
H    -1.9    2.4    2.0
H    -4.8    2.9    2.6
H    -3.8    4.1    1.6
H    -3.5    3.9    3.3
