          35
 sphere cut out from bulk 
C    -0.6   -0.5   -0.9
C    -0.3    0.2    0.4
O     0.6    1.0    0.5
H     0.3   -1.1   -1.1
H    -0.7    0.2   -1.7
H    -1.4   -1.2   -0.9
N    -1.1   -0.0    1.5
C    -2.5   -0.3    1.5
C    -2.8   -1.8    1.2
O    -3.9   -2.2    0.8
H    -0.8    0.5    2.3
H    -2.8   -0.2    2.5
C    -3.4    0.6    0.6
C    -3.6    2.0    1.1
C    -2.5    3.1    0.9
N    -1.4    3.0    1.8
C    -1.5    2.8    3.2
N    -2.4    3.6    3.8
N    -0.8    1.8    3.7
H    -4.3    0.1    0.5
H    -3.0    0.6   -0.4
H    -4.0    2.0    2.1
H    -4.5    2.4    0.5
H    -3.0    4.1    1.1
H    -2.2    3.1   -0.1
H    -0.6    2.4    1.4
H    -2.5    3.5    4.8
H    -2.5    4.6    3.4
H    -0.9    1.9    4.8
N    -1.8   -2.7    1.5
C    -1.9   -4.1    1.4
H    -0.9   -2.2    1.8
H    -1.7   -4.6    2.4
H    -1.2   -4.5    0.7
H    -2.9   -4.3    1.1
