          35
 sphere cut out from bulk 
C    -0.2    0.7    2.3
C    -0.8   -0.6    2.7
O    -0.1   -1.4    3.3
H    -0.7    1.6    2.7
H    -0.3    0.9    1.2
H     0.9    0.7    2.5
N    -2.1   -0.9    2.5
C    -3.3   -0.3    1.8
C    -3.9   -1.1    0.7
O    -5.0   -1.4    0.7
H    -2.3   -1.8    2.9
H    -4.1   -0.3    2.6
C    -3.1    1.2    1.4
C    -4.4    1.8    0.9
C    -4.3    3.4    0.7
N    -4.0    4.2    1.8
C    -2.7    4.5    2.2
N    -2.6    5.1    3.4
N    -1.6    4.3    1.5
H    -2.4    1.3    0.7
H    -2.8    1.8    2.3
H    -5.2    1.7    1.7
H    -4.8    1.4    0.0
H    -5.3    3.7    0.3
H    -3.6    3.5   -0.1
H    -4.6    4.1    2.6
H    -1.7    5.5    3.6
H    -3.3    5.8    3.6
H    -1.7    3.8    0.7
N    -3.0   -1.6   -0.3
C    -1.6   -1.4   -0.5
H    -3.5   -2.1   -1.0
H    -1.3   -0.3   -0.4
H    -1.3   -1.7   -1.5
H    -1.0   -1.9    0.2
