          35
 sphere cut out from bulk 
C     0.7    1.2    0.3
C     0.2    0.9    1.7
O     0.5    1.6    2.7
H     0.3    2.3    0.1
H     0.3    0.6   -0.5
H     1.8    1.2    0.3
N    -0.6   -0.3    1.8
C    -1.1   -0.9    3.0
C    -2.2   -0.2    3.8
O    -3.2   -0.8    4.0
H    -0.8   -0.8    0.9
H    -1.6   -1.9    2.7
C     0.1   -1.3    4.0
C    -0.4   -2.0    5.3
C    -1.1   -3.3    5.1
N    -1.4   -4.1    6.3
C    -0.5   -4.6    7.2
N     0.7   -5.1    6.6
N    -0.7   -4.6    8.4
H     0.7   -0.4    4.2
H     0.8   -2.0    3.4
H    -1.0   -1.3    5.9
H     0.5   -2.2    5.9
H    -0.5   -4.0    4.4
H    -2.1   -3.2    4.6
H    -2.2   -3.7    6.8
H     0.9   -4.8    5.6
H     1.5   -5.2    7.2
H    -0.0   -5.1    8.9
N    -1.9    1.1    4.1
C    -2.9    1.9    4.8
H    -1.1    1.5    3.8
H    -3.2    2.8    4.2
H    -2.5    2.2    5.8
H    -3.8    1.3    5.0
