          35
 sphere cut out from bulk 
C     0.4    0.1    0.5
C     0.0    0.0    1.9
O     0.8   -0.3    2.8
H     1.5   -0.0    0.4
H     0.2    1.1    0.0
H    -0.1   -0.6   -0.2
N    -1.3    0.3    2.2
C    -2.5    0.6    1.4
C    -2.8   -0.7    0.5
O    -3.1   -1.7    1.0
H    -1.5    0.0    3.2
H    -3.3    0.5    2.1
C    -2.5    2.0    0.8
C    -3.9    2.5    0.4
C    -3.9    3.9   -0.2
N    -5.2    4.4   -0.5
C    -6.1    4.7    0.5
N    -5.6    5.3    1.6
N    -7.4    4.6    0.4
H    -1.8    2.1   -0.0
H    -2.1    2.6    1.6
H    -4.5    2.5    1.3
H    -4.4    1.8   -0.2
H    -3.3    3.9   -1.1
H    -3.4    4.6    0.5
H    -5.6    4.0   -1.3
H    -6.3    5.6    2.2
H    -4.8    5.9    1.5
H    -7.7    4.0   -0.5
N    -2.8   -0.6   -0.9
C    -2.4    0.4   -1.9
H    -3.0   -1.5   -1.3
H    -2.4   -0.1   -2.9
H    -1.3    0.7   -1.7
H    -3.0    1.2   -1.9
