          35
 sphere cut out from bulk 
C     0.3   -0.4    1.6
C    -0.1    0.1    3.0
O     0.7    0.4    3.8
H    -0.3   -0.0    0.8
H     0.3   -1.5    1.5
H     1.4   -0.1    1.4
N    -1.4    0.2    3.2
C    -2.4   -0.7    2.6
C    -3.8   -0.2    2.9
O    -4.2    0.3    3.9
H    -1.7    0.6    4.2
H    -2.2   -0.8    1.5
C    -2.3   -2.2    3.1
C    -2.6   -2.5    4.6
C    -1.4   -2.4    5.6
N    -1.0   -1.0    6.0
C    -1.9   -0.1    6.5
N    -2.8   -0.6    7.4
N    -1.9    1.1    6.0
H    -1.3   -2.6    2.8
H    -3.0   -2.8    2.5
H    -2.9   -3.6    4.7
H    -3.4   -1.9    5.0
H    -0.5   -2.9    5.1
H    -1.6   -3.0    6.5
H    -0.3   -0.6    5.4
H    -3.7   -0.2    7.4
H    -2.8   -1.6    7.6
H    -2.5    1.7    6.5
N    -4.7   -0.4    1.8
C    -4.5   -0.8    0.5
H    -5.7   -0.0    2.1
H    -5.4   -0.8   -0.1
H    -4.1   -1.9    0.5
H    -3.8   -0.2   -0.1
