          35
 sphere cut out from bulk 
C     1.0   -1.2    1.2
C     0.2   -0.0    1.7
O     0.7    1.0    2.1
H     0.3   -2.0    0.9
H     1.6   -1.6    2.1
H     1.6   -0.9    0.5
N    -1.2   -0.2    1.6
C    -2.1    0.8    2.2
C    -3.2    0.0    3.0
O    -3.4   -1.1    2.7
H    -1.6   -1.1    1.5
H    -1.5    1.4    2.9
C    -2.8    1.7    1.2
C    -1.8    2.6    0.4
C    -2.4    3.5   -0.6
N    -3.0    2.7   -1.7
C    -3.9    3.3   -2.6
N    -4.3    2.4   -3.6
N    -4.3    4.5   -2.7
H    -3.5    2.4    1.7
H    -3.3    1.1    0.5
H    -1.0    1.9   -0.1
H    -1.2    3.2    1.1
H    -1.7    4.2   -1.1
H    -3.2    4.1   -0.2
H    -2.5    1.9   -2.0
H    -5.0    2.8   -4.2
H    -4.6    1.5   -3.3
H    -3.8    5.1   -2.0
N    -3.8    0.7    4.0
C    -3.6    2.0    4.5
H    -4.6    0.1    4.4
H    -3.9    2.0    5.6
H    -4.3    2.8    4.0
H    -2.6    2.3    4.4
