          35
 sphere cut out from bulk 
C     0.3    0.8    0.1
C    -0.1    0.5    1.5
O     0.4    1.0    2.5
H     0.1    1.9   -0.1
H    -0.2    0.2   -0.7
H     1.4    0.6    0.0
N    -1.1   -0.5    1.6
C    -1.6   -1.0    2.9
C    -2.3   -2.4    2.5
O    -2.2   -2.8    1.4
H    -1.4   -1.0    0.8
H    -0.7   -1.2    3.5
C    -2.4   -0.0    3.7
C    -3.8    0.4    3.1
C    -5.0   -0.4    3.7
N    -5.2   -0.1    5.1
C    -4.8   -0.9    6.1
N    -5.1   -0.4    7.4
N    -4.1   -2.0    5.9
H    -1.8    0.9    3.8
H    -2.5   -0.4    4.7
H    -3.8    0.2    2.0
H    -4.0    1.4    3.2
H    -4.9   -1.5    3.6
H    -5.9   -0.1    3.1
H    -5.4    0.9    5.3
H    -4.9   -1.0    8.2
H    -6.1    0.1    7.5
H    -4.0   -2.5    6.8
N    -2.9   -3.0    3.5
C    -3.6   -4.3    3.3
H    -3.1   -2.5    4.4
H    -2.9   -5.1    3.0
H    -4.3   -4.2    2.4
H    -4.1   -4.5    4.2
