          35
 sphere cut out from bulk 
C     1.4    1.6    2.0
C     0.4    1.2    3.0
O    -0.0    2.0    3.9
H     1.1    2.5    1.4
H     1.7    0.8    1.3
H     2.3    2.0    2.5
N    -0.1   -0.1    2.9
C    -1.2   -0.6    3.7
C    -0.8   -0.9    5.2
O    -1.8   -1.1    6.0
H     0.3   -0.6    2.1
H    -1.9    0.3    3.8
C    -1.9   -1.7    3.0
C    -1.0   -3.0    2.9
C    -1.8   -4.2    2.3
N    -1.0   -5.3    2.2
C    -1.2   -6.4    1.4
N    -2.2   -6.3    0.4
N    -0.5   -7.5    1.3
H    -2.2   -1.4    2.0
H    -2.8   -2.0    3.6
H    -0.7   -3.3    3.9
H    -0.1   -2.8    2.3
H    -2.1   -3.9    1.2
H    -2.7   -4.3    2.8
H    -0.4   -5.6    3.0
H    -2.4   -7.1   -0.1
H    -3.1   -5.8    0.8
H     0.3   -7.5    1.9
N     0.4   -1.2    5.6
C     1.7   -1.1    5.0
H     0.4   -1.4    6.6
H     2.0   -0.1    4.8
H     1.7   -1.7    4.1
H     2.5   -1.5    5.7
