          35
 sphere cut out from bulk 
C    -0.4    0.0   -0.7
C     0.1   -0.2    0.7
O     1.3   -0.4    0.9
H     0.4    0.0   -1.4
H    -0.9    1.0   -0.8
H    -1.2   -0.7   -0.9
N    -0.8   -0.1    1.8
C    -2.2    0.0    1.8
C    -2.6    1.1    2.9
O    -2.9    0.7    4.0
H    -0.3   -0.3    2.7
H    -2.5    0.4    0.8
C    -3.0   -1.3    2.1
C    -2.7   -2.4    1.0
C    -3.4   -3.7    1.3
N    -4.8   -3.6    1.4
C    -5.7   -4.7    1.3
N    -5.1   -5.9    0.9
N    -7.0   -4.7    1.4
H    -4.0   -1.0    2.1
H    -2.7   -1.7    3.1
H    -1.6   -2.5    0.9
H    -3.1   -2.0    0.0
H    -2.9   -4.1    2.3
H    -3.1   -4.4    0.6
H    -5.2   -2.9    1.9
H    -5.8   -6.7    0.9
H    -4.2   -6.2    1.4
H    -7.3   -3.7    1.6
N    -2.4    2.4    2.6
C    -1.9    3.0    1.4
H    -2.6    3.0    3.4
H    -0.8    2.7    1.2
H    -2.0    4.0    1.4
H    -2.4    2.6    0.5
