          35
 sphere cut out from bulk 
C    -0.9    2.6    1.9
C    -1.5    1.6    2.9
O    -2.4    1.9    3.7
H    -0.6    3.4    2.5
H    -1.8    2.9    1.3
H    -0.2    2.1    1.3
N    -0.9    0.3    2.9
C    -1.2   -0.6    3.9
C     0.1   -1.2    4.5
O     1.0   -1.5    3.7
H    -0.1    0.2    2.4
H    -1.7   -0.1    4.8
C    -2.2   -1.8    3.4
C    -3.6   -1.3    3.0
C    -4.6   -1.1    4.2
N    -4.1   -0.2    5.2
C    -3.4   -0.7    6.4
N    -3.8   -1.9    6.8
N    -2.5   -0.0    7.0
H    -2.2   -2.5    4.2
H    -1.7   -2.2    2.6
H    -4.0   -2.0    2.3
H    -3.5   -0.3    2.4
H    -4.8   -2.0    4.6
H    -5.5   -0.7    3.8
H    -3.7    0.7    4.9
H    -3.4   -2.1    7.7
H    -4.7   -2.2    6.7
H    -2.3    0.9    6.6
N     0.1   -1.4    5.8
C     1.2   -2.0    6.5
H    -0.7   -1.1    6.3
H     1.6   -1.3    7.3
H     2.0   -2.3    5.8
H     0.9   -2.9    7.0
