          35
 sphere cut out from bulk 
C     0.8    1.2    2.3
C     0.2   -0.2    2.2
O     0.8   -1.2    2.3
H     1.9    1.1    2.4
H     0.5    1.8    3.1
H     0.7    1.8    1.4
N    -1.2   -0.2    2.0
C    -2.1    0.9    2.0
C    -2.6    1.1    3.5
O    -1.9    1.8    4.2
H    -1.5   -1.2    2.0
H    -1.6    1.8    1.8
C    -3.2    0.7    0.9
C    -4.2    1.8    0.7
C    -5.2    2.1    1.7
N    -6.1    0.9    1.9
C    -7.0    0.9    2.9
N    -7.8   -0.2    2.9
N    -7.0    1.8    3.8
H    -3.8   -0.2    1.2
H    -2.6    0.4    0.0
H    -4.6    1.7   -0.3
H    -3.6    2.8    0.6
H    -5.8    3.0    1.4
H    -4.8    2.4    2.7
H    -6.4    0.5    1.0
H    -8.7   -0.1    3.4
H    -7.9   -0.8    2.0
H    -7.7    1.6    4.6
N    -3.6    0.3    3.9
C    -4.1    0.3    5.3
H    -4.2   -0.1    3.2
H    -4.9    1.1    5.4
H    -3.3    0.6    5.9
H    -4.5   -0.6    5.5
