          35
 sphere cut out from bulk 
C     0.7   -0.9   -0.1
C     0.4   -1.0    1.4
O     1.2   -1.6    2.2
H     0.8   -1.9   -0.5
H     1.7   -0.5   -0.2
H     0.0   -0.3   -0.7
N    -0.8   -0.4    1.8
C    -1.4   -0.4    3.1
C    -1.4    1.0    3.8
O    -2.5    1.5    4.1
H    -1.3    0.0    1.1
H    -2.5   -0.5    2.9
C    -1.1   -1.6    4.0
C    -2.1   -1.7    5.2
C    -1.7   -2.7    6.2
N    -1.6   -4.1    5.7
C    -1.6   -5.3    6.4
N    -1.9   -5.1    7.8
N    -1.5   -6.5    5.9
H    -0.0   -1.5    4.4
H    -1.1   -2.5    3.4
H    -3.1   -1.9    4.8
H    -2.1   -0.7    5.7
H    -2.4   -2.7    7.0
H    -0.7   -2.5    6.7
H    -1.1   -4.2    4.8
H    -1.9   -6.0    8.2
H    -1.5   -4.4    8.2
H    -1.4   -6.4    4.9
N    -0.2    1.6    4.1
C     1.1    1.2    3.8
H    -0.3    2.5    4.5
H     1.2    0.1    3.6
H     1.8    1.5    4.6
H     1.5    1.7    2.8
