          35
 sphere cut out from bulk 
C    -0.2    0.1   -0.1
C    -0.2   -0.3    1.4
O     0.7   -1.0    1.8
H    -1.0    0.9   -0.4
H    -0.5   -0.8   -0.7
H     0.8    0.4   -0.4
N    -1.1    0.3    2.1
C    -1.5    0.2    3.5
C    -1.1    1.4    4.5
O    -2.0    1.9    5.1
H    -1.8    1.0    1.6
H    -2.6    0.3    3.6
C    -1.1   -1.2    4.2
C    -1.6   -1.4    5.6
C    -3.2   -1.4    5.7
N    -3.6   -1.7    7.1
C    -4.9   -2.0    7.4
N    -5.1   -2.1    8.7
N    -5.9   -2.2    6.5
H    -0.0   -1.3    4.2
H    -1.5   -2.0    3.5
H    -1.3   -0.6    6.2
H    -1.2   -2.3    6.0
H    -3.5   -2.3    5.0
H    -3.6   -0.5    5.3
H    -3.1   -1.2    7.8
H    -6.1   -2.5    8.9
H    -4.4   -2.6    9.2
H    -5.6   -2.0    5.6
N     0.2    1.8    4.5
C     1.4    1.4    3.8
H     0.3    2.6    5.1
H     1.6    2.0    2.9
H     1.3    0.3    3.5
H     2.2    1.4    4.4
