          35
 sphere cut out from bulk 
C    -0.8    0.0    1.8
C    -2.2    0.4    2.2
O    -2.4    1.4    2.8
H    -0.1    0.3    2.6
H    -0.6    0.6    0.9
H    -0.7   -1.0    1.6
N    -3.3   -0.4    1.8
C    -3.3   -1.5    0.8
C    -2.5   -2.7    1.3
O    -2.0   -3.5    0.4
H    -4.2    0.1    1.9
H    -4.3   -1.8    0.8
C    -3.0   -1.1   -0.6
C    -3.8    0.2   -1.1
C    -5.3   -0.1   -1.2
N    -6.1    1.1   -0.9
C    -6.3    1.5    0.4
N    -7.0    2.8    0.4
N    -6.0    0.8    1.4
H    -3.1   -1.9   -1.3
H    -1.9   -0.8   -0.7
H    -3.4    0.5   -2.0
H    -3.6    1.0   -0.3
H    -5.6   -0.8   -0.4
H    -5.5   -0.5   -2.1
H    -6.0    1.9   -1.6
H    -7.3    3.0    1.3
H    -7.7    2.9   -0.3
H    -6.3    1.2    2.3
N    -2.4   -2.9    2.6
C    -1.8   -4.0    3.2
H    -2.8   -2.2    3.2
H    -1.4   -4.7    2.4
H    -2.5   -4.6    3.9
H    -0.9   -3.7    3.8
