          35
 sphere cut out from bulk 
C    -0.4   -1.4    0.5
C    -0.9   -1.5    1.9
O    -0.6   -2.3    2.7
H    -0.5   -2.4    0.0
H     0.7   -1.1    0.5
H    -0.9   -0.7   -0.1
N    -1.8   -0.5    2.3
C    -2.5   -0.5    3.5
C    -3.9   -0.1    3.3
O    -4.3    0.6    2.4
H    -2.2    0.1    1.6
H    -2.3   -1.4    4.0
C    -1.8    0.6    4.5
C    -0.4    0.3    4.8
C     0.3    1.4    5.7
N     0.4    2.8    5.1
C     1.3    3.1    4.1
N     1.1    4.3    3.6
N     2.3    2.3    3.7
H    -2.4    0.6    5.4
H    -1.9    1.6    4.0
H     0.2    0.2    3.9
H    -0.3   -0.6    5.3
H     1.3    1.1    6.0
H    -0.3    1.6    6.6
H    -0.5    3.3    5.0
H     1.9    4.6    3.0
H     0.9    5.1    4.2
H     2.3    1.4    4.1
N    -4.8   -0.7    4.2
C    -6.2   -0.5    4.2
H    -4.4   -1.3    4.9
H    -6.5   -0.0    5.2
H    -6.8   -1.4    4.0
H    -6.4    0.2    3.4
