          35
 sphere cut out from bulk 
C    -0.9   -1.3    0.4
C    -1.5   -1.4    1.8
O    -2.5   -0.7    2.1
H    -0.7   -0.3    0.2
H    -1.7   -1.7   -0.3
H    -0.0   -1.9    0.3
N    -0.9   -2.2    2.6
C    -1.4   -2.6    4.0
C    -0.6   -1.9    5.1
O    -0.7   -2.3    6.3
H    -0.1   -2.8    2.3
H    -2.4   -2.2    4.0
C    -1.4   -4.1    4.2
C    -2.4   -4.9    3.3
C    -3.9   -4.6    3.6
N    -4.3   -3.4    3.0
C    -5.4   -2.6    3.4
N    -5.5   -1.4    2.7
N    -6.2   -2.9    4.3
H    -1.6   -4.2    5.3
H    -0.4   -4.5    4.1
H    -2.2   -6.0    3.5
H    -2.1   -4.8    2.3
H    -4.1   -4.6    4.6
H    -4.5   -5.5    3.1
H    -4.0   -3.2    2.0
H    -6.2   -0.8    3.1
H    -4.6   -1.0    2.5
H    -6.1   -3.9    4.7
N     0.2   -0.8    4.8
C     0.9    0.0    5.7
H     0.1   -0.5    3.8
H     0.8   -0.5    6.7
H     0.4    1.0    5.8
H     1.9    0.1    5.4
