          35
 sphere cut out from bulk 
C     0.3    0.2    0.1
C     0.2    0.2    1.6
O     1.2    0.3    2.3
H     0.8    1.1   -0.3
H    -0.7    0.1   -0.5
H     0.9   -0.7   -0.2
N    -1.1    0.1    2.1
C    -1.4   -0.1    3.5
C    -2.4   -1.2    3.6
O    -3.2   -1.4    2.7
H    -1.9   -0.2    1.4
H    -0.4   -0.4    4.0
C    -1.9    1.2    4.2
C    -0.8    2.4    4.1
C    -1.3    3.6    4.9
N    -1.5    3.3    6.3
C    -0.6    3.6    7.3
N     0.8    3.7    6.9
N    -0.8    3.7    8.6
H    -2.1    1.0    5.2
H    -2.8    1.5    3.7
H    -0.7    2.7    3.1
H     0.1    2.0    4.5
H    -2.2    4.0    4.5
H    -0.6    4.4    4.8
H    -2.4    3.4    6.7
H     1.4    3.7    7.6
H     1.1    3.0    6.1
H    -1.8    3.8    8.8
N    -2.5   -1.9    4.8
C    -3.4   -2.9    5.1
H    -1.7   -1.6    5.5
H    -4.0   -2.6    6.0
H    -3.0   -3.8    5.3
H    -4.1   -3.0    4.3
