          35
 sphere cut out from bulk 
C     0.0   -0.9    0.3
C     0.2   -0.6    1.8
O     1.3   -0.5    2.3
H     0.5   -1.9    0.1
H     0.5   -0.2   -0.3
H    -1.0   -1.0   -0.0
N    -1.0   -0.4    2.4
C    -1.1    0.0    3.8
C    -1.8   -1.1    4.6
O    -3.0   -1.0    4.9
H    -1.9   -0.5    1.9
H    -0.0    0.1    4.2
C    -1.8    1.4    3.9
C    -2.1    1.9    5.3
C    -0.9    2.1    6.3
N    -0.5    0.9    7.0
C     0.7    0.3    6.8
N     0.9   -0.9    7.6
N     1.6    0.7    6.0
H    -2.7    1.3    3.4
H    -1.1    2.1    3.4
H    -2.9    1.3    5.8
H    -2.5    2.9    5.2
H    -1.2    2.9    7.1
H    -0.0    2.5    5.8
H    -1.3    0.3    7.4
H     1.8   -1.2    7.7
H     0.5   -0.8    8.6
H     2.5    0.2    6.0
N    -1.1   -2.2    5.0
C     0.3   -2.5    4.7
H    -1.7   -2.9    5.5
H     0.8   -2.9    5.6
H     0.8   -1.7    4.3
H     0.3   -3.3    3.9
