          35
 sphere cut out from bulk 
C     0.1   -1.3    0.6
C     0.1   -0.6    1.9
O     1.1   -0.1    2.5
H     0.4   -2.4    0.8
H     0.9   -0.9   -0.0
H    -0.8   -1.4    0.1
N    -1.2   -0.5    2.5
C    -1.5   -0.2    3.9
C    -0.8    1.2    4.3
O    -0.5    1.3    5.5
H    -1.9   -1.1    2.0
H    -2.6    0.1    3.9
C    -1.3   -1.3    4.9
C     0.1   -1.8    5.1
C     0.2   -3.3    5.5
N    -0.5   -4.2    4.6
C    -0.2   -4.5    3.3
N    -1.1   -5.2    2.6
N     0.9   -4.0    2.7
H    -2.0   -2.1    4.5
H    -1.8   -1.0    5.8
H     0.6   -1.2    5.8
H     0.7   -1.7    4.2
H    -0.3   -3.5    6.5
H     1.2   -3.6    5.6
H    -1.5   -4.4    4.8
H    -0.7   -5.5    1.7
H    -1.5   -6.0    3.1
H     1.5   -3.4    3.2
N    -0.8    2.1    3.4
C    -0.1    3.4    3.7
H    -0.9    1.9    2.5
H    -0.5    4.2    3.1
H     1.0    3.3    3.4
H    -0.2    3.6    4.7
