          35
 sphere cut out from bulk 
C    -2.5   -0.3    0.8
C    -1.5   -0.5    1.8
O    -0.5   -1.2    1.7
H    -2.0    0.0   -0.2
H    -3.3    0.4    1.0
H    -3.0   -1.3    0.5
N    -1.8    0.1    3.0
C    -0.9    0.1    4.2
C    -1.6   -0.5    5.3
O    -2.9   -0.4    5.5
H    -2.7    0.7    3.1
H    -0.1   -0.6    3.8
C    -0.2    1.4    4.5
C    -1.1    2.7    4.3
C    -2.2    2.9    5.4
N    -3.4    3.6    5.0
C    -4.3    3.1    4.0
N    -4.3    1.7    3.9
N    -5.1    3.8    3.4
H     0.6    1.5    3.8
H     0.2    1.4    5.5
H    -1.6    2.6    3.4
H    -0.5    3.6    4.3
H    -1.8    3.4    6.3
H    -2.5    1.9    5.8
H    -3.2    4.6    4.9
H    -5.2    1.4    3.4
H    -4.1    1.1    4.7
H    -4.9    4.8    3.5
N    -0.9   -1.3    6.2
C     0.5   -1.7    6.1
H    -1.4   -1.6    7.0
H     0.8   -2.3    6.9
H     1.2   -0.8    6.1
H     0.7   -2.2    5.2
