          35
 sphere cut out from bulk 
C    -1.3   -1.7    0.7
C    -0.8   -0.8    1.8
O     0.5   -0.6    1.9
H    -2.3   -1.4    0.3
H    -1.4   -2.7    1.1
H    -0.6   -1.7   -0.1
N    -1.7   -0.2    2.5
C    -1.4    0.6    3.7
C    -1.0   -0.3    5.0
O    -1.6   -0.4    6.0
H    -2.7   -0.5    2.4
H    -0.5    1.2    3.5
C    -2.5    1.6    4.1
C    -4.0    1.2    3.8
C    -4.7    0.2    4.7
N    -4.1   -1.1    4.8
C    -3.9   -2.1    3.8
N    -4.6   -1.8    2.6
N    -3.1   -3.1    3.9
H    -2.3    2.5    3.5
H    -2.4    1.8    5.1
H    -4.1    0.9    2.7
H    -4.6    2.1    3.8
H    -5.7    0.1    4.4
H    -4.7    0.6    5.7
H    -3.3   -1.1    5.5
H    -4.6   -2.6    2.1
H    -5.5   -1.4    2.8
H    -2.6   -3.1    4.7
N     0.2   -0.9    4.7
C     0.8   -1.9    5.7
H     0.6   -0.9    3.8
H     0.4   -2.9    5.5
H     0.4   -1.6    6.7
H     1.8   -1.9    5.7
