          35
 sphere cut out from bulk 
C     0.7    0.8    0.3
C     0.3    0.7    1.8
O     1.2    1.0    2.7
H     0.9    1.8    0.1
H    -0.2    0.5   -0.3
H     1.6    0.2    0.1
N    -0.9    0.3    2.1
C    -1.4    0.2    3.5
C    -0.9   -1.1    4.2
O    -1.7   -1.9    4.7
H    -1.5   -0.0    1.4
H    -1.0    1.1    4.0
C    -2.9    0.3    3.5
C    -3.7   -0.7    2.6
C    -5.0   -1.2    3.3
N    -4.7   -1.9    4.5
C    -5.4   -1.6    5.7
N    -6.7   -1.2    5.6
N    -4.9   -1.8    6.9
H    -3.2    1.4    3.2
H    -3.3    0.2    4.5
H    -3.1   -1.6    2.5
H    -4.0   -0.3    1.6
H    -5.5   -1.8    2.6
H    -5.7   -0.3    3.5
H    -3.7   -2.1    4.7
H    -7.2   -1.1    6.5
H    -7.2   -1.7    4.9
H    -3.9   -1.9    6.9
N     0.4   -1.1    4.4
C     1.1   -2.2    5.1
H     0.9   -0.3    4.0
H     1.0   -3.1    4.5
H     0.6   -2.4    6.1
H     2.1   -1.9    5.3
