          35
 sphere cut out from bulk 
C     0.0   -0.0    0.7
C    -0.5    0.3    2.1
O     0.2    0.8    2.9
H    -0.6    0.3   -0.1
H     1.0    0.5    0.6
H     0.2   -1.1    0.6
N    -1.8    0.0    2.4
C    -3.0   -0.1    1.5
C    -2.8   -0.9    0.3
O    -3.0   -0.5   -0.9
H    -2.0    0.3    3.3
H    -3.7   -0.6    2.1
C    -3.6    1.3    1.2
C    -2.7    2.3    0.6
C    -3.1    3.8    0.9
N    -3.1    4.1    2.4
C    -2.1    4.6    3.1
N    -0.8    4.1    2.8
N    -2.2    5.5    4.0
H    -3.9    1.7    2.2
H    -4.5    1.1    0.6
H    -2.7    2.2   -0.5
H    -1.6    2.2    0.9
H    -4.1    4.0    0.5
H    -2.4    4.5    0.4
H    -4.0    4.5    2.6
H    -0.1    4.5    3.4
H    -0.8    3.0    2.7
H    -3.1    5.9    4.0
N    -2.5   -2.3    0.5
C    -2.2   -3.0    1.7
H    -2.3   -2.8   -0.4
H    -2.3   -4.0    1.5
H    -3.0   -2.7    2.5
H    -1.2   -2.8    2.1
