          35
 sphere cut out from bulk 
C    -1.0   -0.2   -0.1
C    -0.8   -0.0    1.4
O     0.3   -0.0    2.0
H    -0.4    0.6   -0.6
H    -2.0   -0.1   -0.4
H    -0.6   -1.2   -0.3
N    -2.0    0.1    2.1
C    -2.1    0.1    3.6
C    -1.6    1.5    4.2
O    -2.4    2.1    4.9
H    -2.8    0.1    1.6
H    -3.2    0.2    3.8
C    -1.6   -1.1    4.3
C    -1.8   -1.1    5.8
C    -1.2   -2.3    6.5
N     0.3   -2.3    6.4
C     1.0   -3.4    6.8
N     2.4   -3.2    6.7
N     0.6   -4.6    7.2
H    -0.5   -1.2    4.1
H    -2.0   -2.0    3.9
H    -2.9   -1.1    6.1
H    -1.4   -0.2    6.3
H    -1.6   -3.2    6.1
H    -1.5   -2.3    7.6
H     0.7   -1.4    6.5
H     2.9   -4.1    6.8
H     2.7   -2.7    5.8
H    -0.4   -4.6    7.3
N    -0.3    1.8    4.0
C     0.3    3.0    4.6
H     0.2    1.2    3.4
H    -0.4    3.4    5.3
H     0.5    3.7    3.8
H     1.2    2.8    5.1
