          35
 sphere cut out from bulk 
C    -1.7   -1.0    0.2
C    -1.1   -0.6    1.6
O    -0.1   -1.2    2.0
H    -2.0   -2.0    0.3
H    -0.9   -0.9   -0.5
H    -2.6   -0.3   -0.0
N    -1.8    0.4    2.3
C    -1.5    0.9    3.7
C    -0.2    1.6    4.0
O    -0.2    2.5    4.7
H    -2.5    0.8    1.8
H    -2.2    1.7    3.7
C    -1.9   -0.1    4.8
C    -0.8   -1.1    5.2
C    -1.4   -2.2    6.1
N    -2.3   -3.2    5.5
C    -3.6   -3.1    5.6
N    -4.3   -4.1    4.8
N    -4.2   -2.3    6.3
H    -2.8   -0.7    4.4
H    -2.2    0.4    5.7
H    -0.0   -0.6    5.7
H    -0.4   -1.6    4.3
H    -1.9   -1.8    7.0
H    -0.5   -2.8    6.5
H    -1.9   -3.6    4.6
H    -5.3   -4.2    5.0
H    -3.8   -5.0    4.7
H    -5.2   -2.4    6.4
N     0.9    1.0    3.4
C     2.2    1.6    3.6
H     0.8    0.1    2.9
H     2.2    2.6    3.8
H     2.9    1.3    2.8
H     2.7    1.1    4.5
