          35
 sphere cut out from bulk 
C    -3.3   -3.4    0.4
C    -2.9   -1.9    0.8
O    -2.1   -1.3    0.1
H    -3.7   -3.4   -0.6
H    -4.0   -3.8    1.1
H    -2.3   -4.0    0.4
N    -3.6   -1.4    1.8
C    -3.3   -0.0    2.3
C    -3.8    0.0    3.7
O    -4.6   -0.8    4.2
H    -4.2   -1.9    2.4
H    -2.2    0.1    2.3
C    -3.9    1.0    1.4
C    -3.1    2.3    1.2
C    -3.5    3.1   -0.0
N    -3.5    2.4   -1.3
C    -2.4    2.0   -2.0
N    -1.4    1.3   -1.3
N    -2.4    2.4   -3.3
H    -5.0    1.3    1.8
H    -4.1    0.6    0.4
H    -2.0    2.0    1.1
H    -3.2    3.0    2.1
H    -2.7    4.0   -0.1
H    -4.5    3.6    0.1
H    -4.2    2.8   -1.9
H    -0.7    1.0   -1.9
H    -1.8    0.6   -0.7
H    -1.6    1.9   -3.8
N    -3.3    1.1    4.5
C    -3.8    1.4    5.8
H    -2.6    1.7    4.0
H    -4.2    2.4    5.9
H    -2.9    1.4    6.5
H    -4.5    0.6    6.1
