          35
 sphere cut out from bulk 
C    -0.7   -1.1    0.5
C    -0.1   -0.1    1.4
O     1.2   -0.1    1.6
H    -0.1   -1.3   -0.3
H    -1.7   -0.8    0.2
H    -0.8   -2.0    1.1
N    -0.8    0.9    2.1
C    -2.1    1.4    1.8
C    -3.3    0.5    2.2
O    -3.2   -0.7    2.1
H    -0.2    1.5    2.6
H    -2.1    2.3    2.5
C    -2.3    2.0    0.4
C    -1.3    3.1    0.1
C     0.0    2.7   -0.6
N     1.1    3.6   -0.5
C     1.7    3.9    0.7
N     1.7    2.9    1.7
N     2.2    5.1    0.9
H    -3.3    2.4    0.3
H    -2.2    1.2   -0.3
H    -1.0    3.7    1.0
H    -1.8    3.9   -0.6
H    -0.1    2.5   -1.6
H     0.3    1.7   -0.2
H     1.1    4.4   -1.1
H     2.4    3.1    2.5
H     1.8    1.9    1.4
H     2.7    5.2    1.8
N    -4.4    1.1    2.7
C    -4.6    2.5    3.0
H    -5.2    0.5    2.9
H    -5.7    2.7    3.3
H    -4.5    3.2    2.1
H    -4.0    2.9    3.8
