          35
 sphere cut out from bulk 
C    -1.6   -0.3    0.1
C    -1.6   -0.4    1.6
O    -1.4    0.6    2.3
H    -0.6   -0.0   -0.3
H    -2.2    0.6   -0.2
H    -1.9   -1.2   -0.4
N    -1.7   -1.7    2.1
C    -1.6   -2.0    3.5
C    -2.1   -1.0    4.5
O    -1.4   -0.6    5.5
H    -1.8   -2.4    1.4
H    -2.2   -2.9    3.6
C    -0.1   -2.5    3.9
C     1.0   -1.5    3.6
C     2.3   -2.0    4.0
N     3.3   -0.9    3.8
C     4.7   -1.3    3.8
N     5.5   -0.2    3.6
N     5.1   -2.5    3.8
H     0.1   -3.4    3.3
H    -0.1   -2.8    4.9
H     0.7   -0.5    4.1
H     1.0   -1.2    2.5
H     2.6   -2.9    3.5
H     2.3   -2.2    5.1
H     3.1   -0.0    4.1
H     6.5   -0.3    4.0
H     5.1    0.7    3.8
H     6.1   -2.6    3.7
N    -3.4   -0.7    4.4
C    -4.4   -0.9    3.4
H    -3.7    0.1    5.1
H    -5.4   -0.8    3.8
H    -4.3   -2.0    3.0
H    -4.3   -0.3    2.5
