          35
 sphere cut out from bulk 
C    -2.3    1.0   -1.0
C    -1.4    0.8    0.3
O    -0.4    1.4    0.4
H    -1.9    1.8   -1.6
H    -3.4    1.2   -0.7
H    -2.3    0.1   -1.6
N    -1.9   -0.1    1.2
C    -3.1   -0.9    1.2
C    -4.3   -0.3    1.8
O    -5.4   -1.0    1.8
H    -1.2   -0.2    2.0
H    -3.3   -1.1    0.1
C    -2.8   -2.3    1.9
C    -2.5   -2.2    3.4
C    -3.1   -3.4    4.2
N    -4.6   -3.5    4.0
C    -5.2   -4.3    3.1
N    -6.4   -3.8    2.6
N    -4.9   -5.5    2.8
H    -1.9   -2.8    1.4
H    -3.7   -2.9    1.7
H    -3.0   -1.3    3.8
H    -1.5   -2.1    3.6
H    -2.9   -3.3    5.2
H    -2.7   -4.3    3.8
H    -5.1   -2.6    4.1
H    -6.8   -4.5    2.0
H    -6.3   -2.9    2.3
H    -4.1   -5.9    3.4
N    -4.2    0.9    2.3
C    -5.3    1.7    2.9
H    -3.3    1.4    2.2
H    -5.5    2.6    2.3
H    -5.1    1.9    3.9
H    -6.2    1.1    2.8
