          35
 sphere cut out from bulk 
C    -0.5   -0.2    0.2
C    -0.7   -0.2    1.7
O     0.2   -0.3    2.5
H    -0.2    0.8   -0.1
H    -1.3   -0.6   -0.3
H     0.4   -0.9    0.1
N    -2.0    0.1    2.2
C    -3.2    0.4    1.5
C    -3.8   -0.8    0.7
O    -4.7   -0.6   -0.2
H    -2.0    0.2    3.2
H    -3.9    0.6    2.2
C    -3.1    1.7    0.6
C    -2.6    2.9    1.3
C    -2.6    4.2    0.4
N    -2.1    5.4    1.0
C    -0.7    5.6    1.0
N    -0.3    6.7    1.8
N     0.2    4.9    0.5
H    -4.1    1.8    0.2
H    -2.5    1.5   -0.3
H    -1.6    2.8    1.7
H    -3.2    3.1    2.2
H    -3.7    4.4    0.1
H    -2.1    4.0   -0.5
H    -2.6    5.8    1.8
H     0.6    6.9    1.7
H    -0.9    7.5    1.6
H    -0.1    4.0    0.1
N    -3.4   -2.0    1.1
C    -3.9   -3.2    0.5
H    -2.7   -2.0    1.8
H    -4.4   -3.9    1.3
H    -3.1   -3.8    0.0
H    -4.7   -3.0   -0.3
