          35
 sphere cut out from bulk 
C     0.2    0.5    0.1
C     0.1   -0.1    1.5
O     0.9   -1.0    1.8
H     0.3   -0.3   -0.7
H     1.1    1.1    0.0
H    -0.7    1.0   -0.2
N    -0.9    0.4    2.2
C    -1.1    0.1    3.7
C    -0.1    1.0    4.5
O     1.0    1.2    4.1
H    -1.4    1.1    1.8
H    -2.1    0.6    3.9
C    -1.2   -1.4    4.0
C    -0.7   -1.9    5.4
C     0.8   -1.8    5.7
N     1.6   -2.2    4.6
C     1.6   -3.6    4.1
N     2.1   -3.7    2.8
N     1.3   -4.6    4.8
H    -0.6   -1.9    3.3
H    -2.2   -1.7    3.9
H    -1.1   -2.9    5.5
H    -1.2   -1.3    6.2
H     1.0   -2.4    6.6
H     1.1   -0.8    5.9
H     1.8   -1.6    3.8
H     1.9   -4.7    2.5
H     1.8   -3.0    2.2
H     1.1   -4.4    5.8
N    -0.6    1.5    5.7
C    -1.9    1.5    6.2
H     0.1    2.0    6.2
H    -2.4    0.5    6.2
H    -2.6    2.2    5.7
H    -1.9    1.8    7.3
