          35
 sphere cut out from bulk 
C    -3.7    0.8    0.0
C    -2.6    0.3    0.9
O    -1.5    0.0    0.4
H    -3.9   -0.0   -0.7
H    -3.4    1.6   -0.6
H    -4.6    1.0    0.6
N    -2.8    0.3    2.2
C    -1.9   -0.2    3.2
C    -2.7   -1.1    4.2
O    -3.9   -0.8    4.4
H    -3.8    0.4    2.6
H    -1.2   -0.8    2.6
C    -1.1    0.9    4.0
C    -0.3    1.8    3.1
C     0.4    2.9    3.9
N     1.2    3.7    3.0
C     2.1    4.7    3.5
N     1.6    5.4    4.7
N     3.2    5.0    2.9
H    -0.5    0.4    4.8
H    -1.9    1.5    4.5
H    -0.9    2.3    2.4
H     0.4    1.2    2.5
H     1.1    2.4    4.7
H    -0.3    3.5    4.5
H     1.7    3.2    2.3
H     2.1    6.2    4.9
H     0.6    5.5    4.8
H     3.6    5.8    3.3
N    -2.0   -2.1    4.8
C    -2.6   -3.0    5.7
H    -1.0   -2.2    4.4
H    -2.6   -4.0    5.4
H    -3.6   -2.7    5.9
H    -2.0   -2.9    6.7
