          35
 sphere cut out from bulk 
C     1.2   -0.9    1.7
C     0.3    0.3    1.6
O     0.8    1.4    1.4
H     1.9   -1.0    0.9
H     0.6   -1.9    1.8
H     1.9   -0.8    2.6
N    -1.0    0.1    1.8
C    -2.0    1.1    1.9
C    -3.3    0.5    2.4
O    -3.4   -0.8    2.5
H    -1.4   -0.8    2.0
H    -1.7    1.9    2.6
C    -2.3    1.9    0.5
C    -3.0    1.1   -0.6
C    -2.2   -0.1   -1.2
N    -0.8    0.1   -1.5
C    -0.3    1.2   -2.2
N     0.9    1.6   -1.8
N    -0.9    1.8   -3.2
H    -1.3    2.2    0.1
H    -2.9    2.8    0.7
H    -3.2    1.8   -1.4
H    -4.0    0.7   -0.3
H    -2.7   -0.4   -2.1
H    -2.3   -1.0   -0.6
H    -0.2   -0.2   -0.8
H     1.3    2.4   -2.4
H     1.1    1.6   -0.8
H    -1.8    1.3   -3.5
N    -4.3    1.3    2.8
C    -5.6    0.9    3.2
H    -4.1    2.3    2.6
H    -5.8    1.3    4.2
H    -5.5   -0.2    3.3
H    -6.4    1.2    2.5
