          35
 sphere cut out from bulk 
C    -0.1    0.1   -0.1
C     0.0    0.1    1.5
O     1.1    0.1    2.0
H     0.4   -0.8   -0.5
H     0.5    1.0   -0.4
H    -1.1    0.2   -0.4
N    -1.1    0.1    2.1
C    -1.4    0.0    3.6
C    -0.8    1.1    4.5
O    -1.4    1.4    5.6
H    -2.0    0.2    1.6
H    -2.5    0.2    3.7
C    -1.2   -1.4    4.2
C     0.3   -1.8    4.5
C     0.3   -3.2    5.2
N     1.6   -3.6    5.7
C     2.3   -2.9    6.8
N     1.4   -2.4    7.8
N     3.6   -2.9    6.8
H    -1.6   -2.1    3.5
H    -1.8   -1.5    5.1
H     0.7   -1.1    5.2
H     0.9   -1.8    3.6
H     0.0   -4.0    4.5
H    -0.4   -3.2    6.0
H     2.3   -3.9    5.0
H     1.9   -1.7    8.3
H     0.5   -2.2    7.5
H     3.9   -2.5    7.6
N     0.4    1.6    4.2
C     1.1    2.5    5.1
H     0.9    1.1    3.4
H     1.8    3.1    4.5
H     1.7    2.0    5.8
H     0.4    3.1    5.6
