          35
 sphere cut out from bulk 
C     0.2   -0.4    0.5
C    -0.1    0.6    1.6
O     0.5    1.6    1.9
H     1.1    0.0    0.1
H    -0.5   -0.5   -0.2
H     0.5   -1.4    0.9
N    -1.2    0.2    2.4
C    -2.0   -1.0    2.4
C    -3.5   -0.6    2.7
O    -3.7    0.0    3.7
H    -1.5    0.9    3.1
H    -2.0   -1.4    1.3
C    -1.5   -2.1    3.3
C    -2.2   -3.4    3.2
C    -1.6   -4.5    4.2
N    -2.3   -5.8    4.2
C    -2.1   -6.6    3.1
N    -3.0   -7.8    3.2
N    -1.4   -6.3    2.1
H    -1.5   -1.7    4.3
H    -0.4   -2.3    3.1
H    -2.2   -3.8    2.2
H    -3.3   -3.3    3.6
H    -1.6   -4.1    5.2
H    -0.6   -4.7    3.8
H    -3.2   -5.8    4.6
H    -2.8   -8.5    2.5
H    -3.0   -8.2    4.1
H    -1.3   -7.1    1.4
N    -4.5   -1.1    1.9
C    -4.4   -1.8    0.7
H    -5.4   -0.8    2.3
H    -5.4   -1.9    0.3
H    -3.9   -2.8    0.8
H    -3.8   -1.3   -0.1
