          35
 sphere cut out from bulk 
C     0.0    0.2   -0.3
C     0.3    0.1    1.2
O     1.5    0.2    1.6
H     0.9    0.7   -0.8
H    -0.9    0.8   -0.5
H    -0.2   -0.8   -0.7
N    -0.7   -0.1    2.1
C    -2.1   -0.1    2.0
C    -2.6   -0.8    0.7
O    -2.2   -1.9    0.4
H    -0.3   -0.2    3.0
H    -2.5   -0.8    2.8
C    -2.7    1.3    2.3
C    -2.4    2.5    1.5
C    -1.3    3.5    2.0
N     0.0    3.1    1.8
C     0.7    3.5    0.6
N     2.0    3.0    0.7
N     0.3    4.1   -0.4
H    -2.4    1.5    3.4
H    -3.8    1.2    2.4
H    -3.4    3.1    1.4
H    -2.1    2.3    0.4
H    -1.5    3.6    3.1
H    -1.5    4.5    1.6
H     0.6    2.8    2.6
H     2.5    3.2   -0.2
H     2.2    2.1    1.0
H    -0.7    4.5   -0.2
N    -3.6   -0.1   -0.0
C    -4.2   -0.7   -1.2
H    -3.8    0.8    0.2
H    -5.3   -0.7   -1.1
H    -3.8   -1.8   -1.3
H    -3.9   -0.2   -2.1
