          35
 sphere cut out from bulk 
C     0.1   -0.1    0.1
C     0.0    0.4    1.5
O     0.8    1.1    2.1
H     0.9   -0.8    0.0
H     0.5    0.8   -0.5
H    -0.8   -0.5   -0.3
N    -1.1   -0.1    2.2
C    -1.4    0.0    3.6
C    -0.9    1.4    4.2
O    -0.2    1.5    5.2
H    -1.7   -0.7    1.7
H    -2.4   -0.1    3.8
C    -0.7   -1.1    4.4
C    -1.2   -1.4    5.8
C    -0.7   -2.6    6.5
N    -1.0   -3.9    5.9
C    -0.3   -4.6    5.0
N    -0.9   -5.7    4.5
N     0.9   -4.3    4.6
H     0.4   -0.9    4.4
H    -0.8   -2.1    3.8
H    -2.3   -1.4    5.8
H    -1.0   -0.5    6.4
H    -1.0   -2.6    7.5
H     0.4   -2.6    6.5
H    -2.0   -4.1    5.8
H    -0.3   -6.3    3.9
H    -1.4   -6.3    5.2
H     1.3   -3.4    4.9
N    -1.5    2.5    3.7
C    -2.4    2.6    2.5
H    -1.1    3.4    4.1
H    -2.9    3.6    2.6
H    -3.1    1.8    2.5
H    -1.8    2.7    1.6
