          35
 sphere cut out from bulk 
C     0.6    0.3    1.2
C     0.1    0.9    2.5
O     0.7    1.6    3.2
H     0.1    0.7    0.3
H     0.5   -0.8    1.1
H     1.7    0.6    1.1
N    -1.2    0.5    2.9
C    -2.2   -0.3    2.1
C    -2.9    0.6    1.0
O    -3.3    1.7    1.3
H    -1.6    1.1    3.6
H    -1.6   -1.0    1.6
C    -3.2   -0.9    3.0
C    -2.7   -1.8    4.1
C    -2.4   -3.3    3.6
N    -1.7   -3.5    2.4
C    -0.4   -3.3    2.1
N     0.4   -2.9    3.2
N     0.2   -3.4    0.9
H    -4.0   -1.4    2.3
H    -3.8   -0.1    3.4
H    -3.4   -1.9    4.9
H    -1.8   -1.4    4.5
H    -3.4   -3.8    3.5
H    -1.9   -3.8    4.4
H    -2.3   -3.7    1.6
H    -0.0   -2.2    3.8
H     1.3   -2.6    2.9
H    -0.4   -3.8    0.3
N    -3.0    0.1   -0.2
C    -2.6   -1.2   -0.7
H    -3.6    0.7   -0.9
H    -3.3   -2.0   -0.3
H    -1.6   -1.4   -0.5
H    -2.7   -1.2   -1.8
