          35
 sphere cut out from bulk 
C    -1.8   -0.5   -1.0
C    -0.6   -0.2   -0.2
O     0.5   -0.3   -0.6
H    -2.3   -1.5   -0.7
H    -1.5   -0.6   -2.0
H    -2.6    0.2   -1.0
N    -0.8    0.3    1.1
C    -2.1    0.7    1.8
C    -3.2   -0.3    1.7
O    -4.3    0.0    1.2
H     0.0    0.6    1.6
H    -1.8    0.8    2.8
C    -2.5    2.1    1.4
C    -1.4    3.1    1.4
C    -0.8    3.4    2.8
N     0.6    3.8    2.8
C     1.6    2.8    2.7
N     2.9    3.4    2.7
N     1.3    1.6    2.7
H    -3.3    2.4    2.0
H    -3.0    2.1    0.3
H    -1.7    4.1    0.9
H    -0.6    2.8    0.7
H    -0.9    2.5    3.4
H    -1.4    4.2    3.2
H     0.8    4.7    2.4
H     3.6    2.8    2.2
H     3.0    4.3    2.5
H     2.1    1.0    2.8
N    -3.0   -1.6    2.2
C    -1.8   -2.1    2.8
H    -3.8   -2.2    2.1
H    -1.0   -2.4    2.0
H    -2.0   -3.0    3.4
H    -1.3   -1.4    3.4
