          35
 sphere cut out from bulk 
C     0.1    0.3   -0.1
C     0.6    0.4    1.3
O     1.8    0.8    1.6
H    -0.8    1.0   -0.2
H    -0.2   -0.7   -0.4
H     0.9    0.7   -0.8
N    -0.2   -0.1    2.3
C    -1.6   -0.6    2.2
C    -2.3   -0.2    3.5
O    -1.6   -0.1    4.6
H     0.1    0.0    3.3
H    -2.0   -0.1    1.4
C    -1.6   -2.1    1.9
C    -1.0   -3.0    3.0
C    -1.9   -3.4    4.1
N    -1.4   -4.3    5.1
C    -0.6   -3.7    6.2
N     0.1   -4.8    6.9
N    -0.4   -2.5    6.5
H    -1.1   -2.2    1.0
H    -2.7   -2.4    1.8
H    -0.1   -2.5    3.4
H    -0.6   -3.9    2.5
H    -2.8   -4.0    3.7
H    -2.4   -2.5    4.6
H    -1.0   -5.2    4.8
H     0.5   -4.3    7.7
H    -0.6   -5.5    7.2
H    -0.8   -1.8    5.8
N    -3.6   -0.1    3.5
C    -4.5   -0.1    2.3
H    -4.0    0.1    4.4
H    -5.5    0.2    2.7
H    -4.5   -1.1    1.9
H    -4.2    0.7    1.6
