          35
 sphere cut out from bulk 
C     0.0    0.6    0.4
C     0.1    0.7    1.9
O     1.1    1.1    2.5
H    -0.4    1.6    0.1
H    -0.6   -0.1   -0.0
H     1.0    0.5   -0.0
N    -0.9    0.2    2.6
C    -2.3   -0.1    2.2
C    -2.4   -1.5    1.4
O    -3.4   -1.7    0.7
H    -0.8    0.3    3.6
H    -2.9   -0.3    3.2
C    -3.1    1.0    1.5
C    -3.0    2.4    2.2
C    -3.7    2.4    3.6
N    -3.6    3.7    4.2
C    -4.0    4.0    5.5
N    -5.0    3.1    6.0
N    -3.5    4.9    6.2
H    -4.1    0.7    1.4
H    -2.7    1.1    0.5
H    -3.5    3.1    1.6
H    -2.0    2.7    2.3
H    -3.2    1.6    4.3
H    -4.7    2.0    3.5
H    -2.8    4.2    3.9
H    -5.4    3.5    6.9
H    -5.7    2.9    5.3
H    -2.7    5.4    5.8
N    -1.4   -2.3    1.6
C    -1.4   -3.6    1.0
H    -0.7   -2.0    2.2
H    -1.3   -4.4    1.8
H    -0.5   -3.7    0.3
H    -2.3   -3.8    0.4
