          35
 sphere cut out from bulk 
C    -0.7   -1.5   -0.0
C    -0.4   -0.3    0.9
O     0.4    0.6    0.5
H    -0.1   -1.4   -0.9
H    -1.7   -1.5   -0.3
H    -0.5   -2.4    0.5
N    -1.0   -0.2    2.1
C    -2.0   -1.1    2.6
C    -3.2   -0.2    3.1
O    -3.0    0.9    3.7
H    -0.9    0.7    2.6
H    -2.4   -1.7    1.8
C    -1.6   -1.9    3.8
C    -0.4   -2.9    3.5
C     0.1   -3.6    4.7
N     1.2   -4.5    4.3
C     1.7   -5.5    5.2
N     2.8   -6.1    4.7
N     1.2   -5.7    6.4
H    -2.4   -2.5    4.2
H    -1.2   -1.2    4.6
H     0.4   -2.3    3.0
H    -0.8   -3.6    2.7
H    -0.7   -4.2    5.1
H     0.4   -2.9    5.5
H     1.9   -4.1    3.7
H     3.1   -6.9    5.4
H     2.7   -6.5    3.8
H     0.5   -5.1    6.7
N    -4.5   -0.7    2.9
C    -5.7   -0.0    3.4
H    -4.5   -1.6    2.4
H    -6.3    0.2    2.5
H    -5.4    0.9    3.9
H    -6.2   -0.6    4.1
