          35
 sphere cut out from bulk 
C    -0.7    0.6   -0.2
C    -0.4    0.4    1.3
O     0.6   -0.1    1.7
H     0.1    1.1   -0.7
H    -1.6    1.1   -0.5
H    -0.7   -0.4   -0.7
N    -1.4    0.9    2.1
C    -1.3    0.9    3.5
C    -2.3   -0.1    4.2
O    -1.9   -0.8    5.1
H    -2.2    1.4    1.6
H    -0.4    0.5    3.8
C    -1.4    2.3    4.2
C    -0.4    3.3    3.7
C     1.1    2.8    3.6
N     1.5    2.2    4.8
C     2.6    1.3    4.9
N     2.8    0.5    3.8
N     3.3    1.4    6.0
H    -1.2    2.1    5.3
H    -2.4    2.7    4.2
H    -0.4    4.2    4.3
H    -0.7    3.7    2.7
H     1.7    3.7    3.3
H     1.2    2.1    2.8
H     1.6    2.8    5.6
H     3.4   -0.2    3.9
H     2.0    0.3    3.2
H     4.0    0.6    6.0
N    -3.7   -0.1    3.8
C    -4.3    0.8    2.9
H    -4.2   -0.7    4.3
H    -4.2    0.4    1.8
H    -4.0    1.8    2.9
H    -5.4    0.8    3.1
