          35
 sphere cut out from bulk 
C    -0.5   -1.0    0.4
C    -0.2   -0.5    1.8
O     1.0   -0.4    2.2
H    -0.1   -2.0    0.3
H     0.1   -0.3   -0.3
H    -1.5   -1.0    0.1
N    -1.3   -0.2    2.6
C    -1.2    0.2    4.0
C    -0.2    1.4    4.2
O     0.6    1.3    5.2
H    -2.2   -0.3    2.2
H    -2.2    0.6    4.2
C    -0.9   -0.9    4.9
C    -1.8   -2.2    4.7
C    -3.2   -1.9    5.0
N    -4.0   -3.2    4.9
C    -5.4   -3.2    5.0
N    -5.9   -4.4    4.7
N    -6.2   -2.2    5.3
H    -0.9   -0.6    6.0
H     0.2   -1.2    4.8
H    -1.4   -3.0    5.4
H    -1.6   -2.6    3.7
H    -3.6   -1.2    4.3
H    -3.4   -1.5    6.0
H    -3.6   -3.9    4.2
H    -6.9   -4.5    4.9
H    -5.4   -5.2    5.2
H    -5.7   -1.3    5.4
N    -0.3    2.5    3.4
C    -1.2    2.8    2.3
H     0.4    3.2    3.7
H    -1.2    3.9    2.2
H    -2.2    2.5    2.5
H    -0.8    2.4    1.4
