          35
 sphere cut out from bulk 
C    -0.4   -1.0    0.1
C    -0.1   -0.6    1.6
O     0.9   -1.0    2.2
H    -1.1   -1.8    0.1
H     0.6   -1.4   -0.2
H    -0.7   -0.1   -0.5
N    -1.0    0.2    2.2
C    -2.4    0.5    1.8
C    -2.7    1.9    1.3
O    -3.3    2.1    0.3
H    -0.8    0.4    3.2
H    -2.6   -0.1    0.9
C    -3.5    0.0    2.8
C    -3.5   -1.5    3.1
C    -2.5   -2.1    4.1
N    -2.5   -1.4    5.4
C    -1.7   -0.3    5.7
N    -2.2    0.6    6.6
N    -0.5   -0.1    5.3
H    -4.4    0.3    2.4
H    -3.3    0.6    3.8
H    -3.4   -2.1    2.1
H    -4.5   -1.7    3.5
H    -1.4   -2.0    3.7
H    -2.7   -3.1    4.2
H    -3.5   -1.3    5.8
H    -1.5    1.1    7.1
H    -2.9    0.2    7.2
H    -0.1   -0.8    4.7
N    -2.2    3.0    2.1
C    -1.5    3.0    3.3
H    -2.4    3.9    1.7
H    -1.6    4.0    3.8
H    -0.4    2.8    3.2
H    -1.9    2.3    4.1
