          35
 sphere cut out from bulk 
C    -0.1    0.1    0.2
C    -0.4    0.5    1.6
O     0.5    0.8    2.4
H     1.0    0.3    0.0
H    -0.6    0.7   -0.6
H    -0.3   -0.9   -0.1
N    -1.7    0.4    2.0
C    -2.9   -0.1    1.2
C    -4.0    0.9    1.5
O    -4.9    0.7    2.3
H    -1.9    0.6    3.0
H    -2.6   -0.0    0.2
C    -3.4   -1.5    1.6
C    -2.3   -2.6    1.4
C    -2.9   -4.0    1.8
N    -4.0   -4.4    1.0
C    -5.2   -4.7    1.4
N    -5.6   -4.0    2.6
N    -6.1   -5.6    0.9
H    -4.3   -1.7    1.0
H    -3.6   -1.4    2.7
H    -1.4   -2.4    1.9
H    -2.0   -2.6    0.3
H    -3.2   -4.0    2.8
H    -2.0   -4.7    1.7
H    -3.7   -5.0    0.1
H    -6.6   -4.2    2.8
H    -5.4   -3.0    2.6
H    -5.6   -6.1    0.2
N    -4.0    2.1    0.8
C    -3.0    2.6   -0.1
H    -4.7    2.8    1.1
H    -2.0    2.8    0.3
H    -3.3    3.5   -0.6
H    -2.8    1.9   -1.0
