          35
 sphere cut out from bulk 
C    -0.0    0.9    0.2
C     0.2    0.1    1.4
O     1.3   -0.4    1.8
H     0.9    0.9   -0.4
H    -0.3    1.9    0.4
H    -0.8    0.5   -0.5
N    -0.9   -0.1    2.3
C    -2.4    0.1    2.2
C    -3.0   -0.8    1.2
O    -2.5   -1.1    0.1
H    -0.6   -0.7    3.0
H    -2.7   -0.1    3.2
C    -2.8    1.6    2.0
C    -3.2    2.1    0.6
C    -4.6    1.8    0.1
N    -5.6    2.3    1.0
C    -6.9    1.6    1.1
N    -7.8    2.4    1.9
N    -7.0    0.5    0.7
H    -2.0    2.2    2.4
H    -3.6    1.8    2.7
H    -2.5    1.8   -0.2
H    -3.1    3.2    0.6
H    -4.8    0.7    0.0
H    -4.8    2.2   -0.9
H    -5.6    3.2    1.2
H    -8.7    2.0    1.8
H    -7.7    3.4    1.9
H    -8.0    0.1    0.9
N    -4.2   -1.3    1.6
C    -5.0   -1.1    2.8
H    -4.7   -1.8    0.8
H    -6.0   -1.6    2.7
H    -5.2    0.0    3.0
H    -4.5   -1.5    3.7
