          35
 sphere cut out from bulk 
C    -2.9   -0.1    0.9
C    -2.1   -0.2    2.2
O    -1.1    0.3    2.4
H    -2.2   -0.5    0.1
H    -3.1    0.9    0.7
H    -3.8   -0.7    0.9
N    -2.8   -0.9    3.2
C    -2.1   -1.3    4.5
C    -2.2   -2.8    4.6
O    -3.1   -3.4    4.0
H    -3.5   -1.6    3.0
H    -1.1   -1.0    4.4
C    -2.7   -0.7    5.7
C    -2.3    0.8    6.0
C    -2.7    1.9    5.0
N    -4.1    1.8    4.5
C    -5.2    2.2    5.3
N    -6.4    1.9    4.8
N    -5.1    2.9    6.5
H    -2.4   -1.3    6.6
H    -3.8   -0.8    5.7
H    -1.2    0.9    6.2
H    -2.8    1.1    7.0
H    -2.1    1.8    4.1
H    -2.5    2.9    5.4
H    -4.3    1.0    3.9
H    -6.5    2.0    3.8
H    -7.2    2.3    5.3
H    -4.2    2.9    6.8
N    -1.2   -3.4    5.3
C    -1.2   -4.8    5.5
H    -0.5   -2.8    5.6
H    -1.2   -5.0    6.6
H    -0.3   -5.3    5.1
H    -2.0   -5.3    5.1
