          35
 sphere cut out from bulk 
C    -0.3    0.6   -0.2
C    -0.4    0.9    1.3
O     0.3    1.8    1.8
H    -1.0   -0.2   -0.5
H     0.7    0.2   -0.4
H    -0.4    1.5   -0.8
N    -1.4    0.3    2.0
C    -1.5    0.3    3.4
C    -1.4    1.7    4.0
O    -0.7    2.0    5.0
H    -1.8   -0.6    1.5
H    -2.5   -0.0    3.6
C    -0.5   -0.6    4.1
C    -1.1   -1.4    5.3
C    -2.2   -2.5    4.9
N    -1.8   -3.4    3.9
C    -1.9   -3.2    2.5
N    -1.0   -3.9    1.7
N    -2.8   -2.4    1.9
H     0.3   -0.0    4.5
H    -0.1   -1.3    3.4
H    -1.6   -0.7    6.0
H    -0.3   -1.9    5.8
H    -3.1   -2.0    4.5
H    -2.5   -3.0    5.8
H    -0.9   -3.9    4.1
H    -1.3   -3.9    0.8
H    -0.7   -4.8    2.1
H    -3.4   -2.0    2.6
N    -2.3    2.7    3.5
C    -3.1    2.7    2.3
H    -2.1    3.6    4.0
H    -3.9    3.5    2.4
H    -3.6    1.7    2.2
H    -2.5    2.9    1.4
