          35
 sphere cut out from bulk 
C    -0.1   -1.8    0.5
C    -0.3   -0.6    1.4
O     0.6   -0.1    2.1
H     0.7   -1.5   -0.3
H    -1.0   -2.1   -0.0
H     0.4   -2.6    1.1
N    -1.6   -0.0    1.4
C    -1.9    1.2    2.1
C    -1.7    1.1    3.6
O    -1.3    2.1    4.2
H    -2.3   -0.4    0.7
H    -1.3    2.0    1.8
C    -3.4    1.5    1.8
C    -3.8    2.9    2.4
C    -5.3    3.2    2.0
N    -5.7    4.5    2.6
C    -7.0    4.9    2.6
N    -7.8    4.5    1.6
N    -7.5    5.7    3.5
H    -3.5    1.6    0.7
H    -4.1    0.7    2.1
H    -3.7    2.9    3.5
H    -3.2    3.7    2.0
H    -6.0    2.4    2.4
H    -5.4    3.2    0.9
H    -5.2    4.7    3.5
H    -7.3    4.4    0.7
H    -8.7    5.0    1.5
H    -6.9    5.9    4.3
N    -2.0   -0.0    4.3
C    -2.4   -1.3    3.9
H    -1.8    0.1    5.3
H    -2.8   -1.9    4.8
H    -3.2   -1.3    3.1
H    -1.6   -1.9    3.5
