          35
 sphere cut out from bulk 
C    -2.5    0.2    0.5
C    -1.7    0.4    1.8
O    -0.6    1.0    1.9
H    -1.8   -0.4   -0.1
H    -2.6    1.2    0.0
H    -3.4   -0.3    0.6
N    -2.4   -0.0    2.9
C    -1.9   -0.1    4.3
C    -2.3    1.1    5.3
O    -2.3    0.8    6.5
H    -3.3   -0.4    2.8
H    -2.5   -0.9    4.8
C    -0.4   -0.5    4.5
C     0.6    0.4    5.2
C     1.0    1.7    4.5
N     1.9    2.5    5.3
C     2.3    3.8    5.0
N     2.2    4.1    3.6
N     2.8    4.5    5.9
H     0.0   -0.7    3.5
H    -0.4   -1.5    5.0
H     1.5   -0.1    5.4
H     0.2    0.7    6.2
H     0.1    2.3    4.3
H     1.4    1.5    3.5
H     1.9    2.4    6.3
H     2.3    3.3    3.0
H     2.8    4.9    3.3
H     3.1    5.4    5.5
N    -2.6    2.3    4.9
C    -2.5    3.0    3.6
H    -2.9    2.9    5.7
H    -2.5    4.0    3.7
H    -3.4    2.7    2.9
H    -1.6    2.7    3.0
