          35
 sphere cut out from bulk 
C    -0.1   -0.1   -0.1
C     0.2   -0.1    1.4
O     1.3   -0.2    1.8
H     0.9   -0.1   -0.6
H    -0.7    0.8   -0.4
H    -0.6   -1.0   -0.5
N    -0.9   -0.0    2.2
C    -2.3    0.0    1.9
C    -2.9    1.1    2.8
O    -3.3    0.9    3.9
H    -0.7   -0.1    3.2
H    -2.4    0.3    0.8
C    -3.1   -1.3    2.1
C    -2.5   -2.5    1.4
C    -3.3   -3.8    1.6
N    -4.6   -3.9    1.1
C    -5.8   -3.6    1.8
N    -6.9   -3.6    1.1
N    -5.9   -3.3    3.1
H    -4.2   -1.1    1.9
H    -3.0   -1.5    3.2
H    -1.5   -2.6    1.6
H    -2.6   -2.3    0.3
H    -3.3   -4.0    2.7
H    -2.7   -4.6    1.1
H    -4.8   -3.7    0.1
H    -7.8   -3.6    1.7
H    -7.0   -4.5    0.5
H    -5.0   -3.2    3.5
N    -3.1    2.4    2.2
C    -2.6    2.8    0.9
H    -3.4    3.1    2.8
H    -1.5    2.8    0.8
H    -2.9    3.9    0.8
H    -3.0    2.3    0.1
