          35
 sphere cut out from bulk 
C    -1.8    3.7    0.6
C    -1.4    3.0    1.9
O    -0.5    3.5    2.6
H    -2.1    4.7    0.8
H    -2.6    3.1    0.1
H    -0.9    3.8   -0.1
N    -2.0    1.8    2.2
C    -1.6    1.0    3.3
C    -1.4   -0.4    2.8
O    -2.1   -0.9    1.8
H    -2.6    1.4    1.5
H    -0.6    1.4    3.6
C    -2.6    1.0    4.5
C    -2.7    2.3    5.3
C    -1.5    2.5    6.3
N    -0.2    2.7    5.8
C     0.7    1.7    5.4
N     1.6    2.1    4.4
N     0.7    0.5    5.8
H    -2.4    0.2    5.1
H    -3.6    0.8    4.0
H    -3.6    2.3    5.9
H    -2.7    3.2    4.6
H    -1.5    1.6    7.0
H    -1.8    3.3    7.0
H    -0.1    3.6    5.3
H     2.2    1.4    4.1
H     1.2    2.7    3.7
H     0.0    0.3    6.6
N    -0.5   -1.1    3.5
C    -0.2   -2.5    3.2
H    -0.0   -0.7    4.3
H    -0.8   -2.8    2.3
H    -0.5   -3.2    4.1
H     0.9   -2.7    3.0
