          35
 sphere cut out from bulk 
C     1.1   -1.3    3.0
C     1.1   -1.6    1.6
O     2.0   -2.1    1.0
H     2.1   -1.5    3.4
H     0.4   -2.0    3.6
H     0.7   -0.3    3.3
N    -0.1   -1.4    0.9
C    -1.3   -0.7    1.3
C    -2.1   -1.4    2.4
O    -2.7   -0.8    3.3
H     0.0   -1.5   -0.1
H    -1.0    0.2    1.8
C    -2.2   -0.3    0.2
C    -3.0   -1.4   -0.5
C    -2.3   -2.4   -1.4
N    -3.0   -3.5   -1.8
C    -3.0   -4.7   -1.1
N    -3.6   -5.8   -1.7
N    -2.3   -4.8    0.0
H    -1.6    0.2   -0.6
H    -2.9    0.5    0.6
H    -3.8   -0.9   -1.1
H    -3.6   -2.0    0.3
H    -1.4   -2.7   -0.9
H    -1.9   -1.8   -2.3
H    -3.2   -3.6   -2.8
H    -3.7   -6.6   -1.1
H    -4.5   -5.5   -2.2
H    -2.4   -5.7    0.4
N    -2.1   -2.8    2.3
C    -2.9   -3.6    3.2
H    -1.7   -3.3    1.5
H    -3.3   -3.0    4.0
H    -2.3   -4.4    3.6
H    -3.8   -4.0    2.7
