          35
 sphere cut out from bulk 
C    -0.7   -1.2    1.0
C    -0.4   -0.0    1.9
O     0.8    0.1    2.3
H     0.2   -1.6    0.5
H    -1.4   -0.9    0.1
H    -1.2   -2.0    1.6
N    -1.4    0.8    2.2
C    -2.8    0.9    1.8
C    -3.3    2.3    2.0
O    -2.5    3.2    2.6
H    -1.1    1.7    2.7
H    -2.8    0.7    0.7
C    -3.6   -0.2    2.5
C    -3.8    0.1    4.0
C    -5.0   -0.7    4.6
N    -6.3   -0.4    3.9
C    -6.9    0.9    3.8
N    -7.8    1.0    2.8
N    -6.6    1.9    4.6
H    -3.2   -1.2    2.3
H    -4.6   -0.2    2.0
H    -3.9    1.2    4.2
H    -2.9   -0.2    4.5
H    -5.2   -0.4    5.7
H    -4.9   -1.7    4.6
H    -6.5   -1.0    3.1
H    -8.3    1.8    2.9
H    -8.4    0.2    2.6
H    -5.9    1.7    5.2
N    -4.5    2.5    1.6
C    -5.2    3.8    1.9
H    -5.1    1.8    1.3
H    -5.8    4.1    1.1
H    -4.5    4.6    2.2
H    -5.9    3.7    2.8
