          35
 sphere cut out from bulk 
C    -0.1   -0.1    0.1
C     0.0   -0.1    1.6
O     1.1   -0.0    2.2
H    -0.3   -1.2   -0.2
H     0.9    0.1   -0.3
H    -0.8    0.5   -0.3
N    -1.2   -0.1    2.3
C    -2.6   -0.1    1.9
C    -2.9   -1.2    0.8
O    -3.4   -1.0   -0.2
H    -1.0    0.0    3.3
H    -3.1   -0.3    2.8
C    -3.1    1.3    1.4
C    -3.0    2.4    2.4
C    -3.5    3.7    1.9
N    -3.4    4.8    2.8
C    -2.2    5.5    2.9
N    -2.2    6.5    4.0
N    -1.2    5.2    2.1
H    -4.1    1.1    1.1
H    -2.5    1.6    0.5
H    -1.9    2.6    2.7
H    -3.5    2.1    3.3
H    -4.6    3.6    1.7
H    -3.0    4.0    1.0
H    -3.9    4.8    3.7
H    -1.4    7.1    4.0
H    -3.1    7.0    4.0
H    -0.4    5.9    2.3
N    -2.5   -2.5    1.2
C    -2.0   -3.0    2.5
H    -2.8   -3.1    0.5
H    -2.2   -4.0    2.6
H    -2.5   -2.5    3.4
H    -0.9   -2.8    2.6
