          35
 sphere cut out from bulk 
C    -1.4   -1.2   -0.6
C    -1.0   -1.1    0.8
O     0.2   -0.9    1.2
H    -2.5   -1.2   -0.8
H    -1.0   -2.1   -1.0
H    -0.9   -0.4   -1.2
N    -2.0   -1.3    1.7
C    -1.8   -1.2    3.2
C    -2.2   -2.5    3.9
O    -3.1   -2.6    4.7
H    -3.0   -1.3    1.4
H    -0.7   -1.1    3.3
C    -2.5   -0.0    3.8
C    -4.0    0.0    3.6
C    -4.6    1.4    3.1
N    -4.0    1.8    1.9
C    -4.0    1.2    0.7
N    -3.2    1.8   -0.3
N    -4.7    0.1    0.4
H    -2.1    0.9    3.3
H    -2.2    0.0    4.8
H    -4.5   -0.2    4.6
H    -4.4   -0.8    3.0
H    -4.4    2.2    3.8
H    -5.7    1.3    3.0
H    -3.7    2.8    1.8
H    -3.2    1.3   -1.2
H    -2.3    2.0   -0.0
H    -5.3   -0.1    1.1
N    -1.6   -3.7    3.5
C    -0.5   -3.9    2.5
H    -1.9   -4.5    4.0
H     0.1   -3.0    2.5
H    -0.9   -4.1    1.5
H     0.1   -4.7    2.9
