          35
 sphere cut out from bulk 
C     0.3   -1.0    0.1
C     0.1   -1.5    1.6
O     0.8   -2.3    2.1
H    -0.0   -1.7   -0.6
H     1.4   -0.9    0.0
H    -0.1   -0.0   -0.1
N    -0.9   -1.0    2.3
C    -2.1   -0.2    1.8
C    -2.5    0.7    3.0
O    -2.5    0.3    4.2
H    -1.0   -1.3    3.2
H    -1.8    0.4    1.0
C    -3.3   -1.1    1.4
C    -3.0   -2.0    0.2
C    -2.4   -3.4    0.7
N    -1.7   -4.0   -0.5
C    -0.8   -5.1   -0.3
N    -0.1   -5.0    0.9
N    -0.7   -6.1   -1.1
H    -4.1   -0.4    1.1
H    -3.7   -1.6    2.3
H    -2.4   -1.6   -0.5
H    -4.0   -2.2   -0.3
H    -3.2   -4.0    1.1
H    -1.7   -3.3    1.5
H    -2.3   -4.2   -1.3
H     0.6   -5.8    0.9
H     0.2   -4.1    1.2
H    -1.4   -6.0   -1.9
N    -3.0    1.9    2.7
C    -3.5    2.9    3.6
H    -3.0    2.2    1.7
H    -4.6    3.1    3.4
H    -2.9    3.8    3.6
H    -3.5    2.4    4.6
