          35
 sphere cut out from bulk 
C    -2.2   -2.2    0.2
C    -2.4   -2.5    1.6
O    -2.5   -3.7    2.0
H    -1.2   -2.5   -0.1
H    -2.4   -1.1   -0.1
H    -2.9   -2.8   -0.4
N    -2.6   -1.5    2.5
C    -2.7   -1.6    3.9
C    -2.9   -0.1    4.4
O    -2.5    0.8    3.7
H    -2.5   -0.5    2.1
H    -3.6   -2.1    4.1
C    -1.5   -2.3    4.6
C    -0.1   -1.9    4.1
C     1.0   -2.8    4.7
N     0.8   -4.2    4.7
C     1.0   -5.0    3.6
N     0.5   -4.6    2.4
N     1.8   -6.1    3.8
H    -1.7   -3.4    4.5
H    -1.6   -2.1    5.7
H     0.1   -0.9    4.2
H    -0.1   -2.1    3.0
H     1.1   -2.5    5.7
H     1.9   -2.5    4.2
H     1.2   -4.7    5.5
H     0.6   -5.3    1.6
H    -0.5   -4.3    2.5
H     1.8   -6.7    3.0
N    -3.4    0.1    5.7
C    -3.9   -0.9    6.6
H    -3.4    1.0    5.9
H    -4.7   -0.5    7.2
H    -3.1   -1.2    7.3
H    -4.3   -1.8    6.1
