          35
 sphere cut out from bulk 
C    -2.6    1.6    0.3
C    -1.7    1.1    1.4
O    -0.5    1.1    1.4
H    -3.6    1.4    0.4
H    -2.2    1.2   -0.6
H    -2.5    2.7    0.3
N    -2.4    0.6    2.5
C    -1.8    0.2    3.8
C    -2.1   -1.2    4.3
O    -1.9   -1.5    5.4
H    -3.4    0.8    2.5
H    -0.7    0.2    3.5
C    -2.0    1.3    4.9
C    -1.6    2.7    4.5
C    -0.0    2.9    4.5
N     0.4    4.1    3.8
C     1.5    4.2    3.0
N     1.7    3.1    2.2
N     2.1    5.3    3.0
H    -1.6    0.9    5.8
H    -3.1    1.3    5.1
H    -2.0    3.4    5.2
H    -1.9    3.0    3.5
H     0.4    2.0    3.9
H     0.4    2.8    5.5
H     0.3    4.9    4.4
H     2.4    3.3    1.5
H     0.9    2.5    1.9
H     2.8    5.4    2.2
N    -2.5   -2.0    3.3
C    -2.8   -3.4    3.6
H    -2.6   -1.7    2.4
H    -3.8   -3.7    3.2
H    -2.7   -3.6    4.7
H    -2.0   -4.1    3.1
