          35
 sphere cut out from bulk 
C     0.9    2.2    0.9
C     0.1    2.0    2.1
O    -0.2    2.9    2.9
H     1.9    2.6    1.2
H     0.4    3.0    0.2
H     1.1    1.3    0.3
N    -0.3    0.7    2.3
C    -1.1    0.2    3.5
C    -2.3    1.1    3.8
O    -2.5    1.4    4.9
H     0.0   -0.1    1.6
H    -1.5   -0.8    3.2
C    -0.2    0.1    4.7
C     1.2   -0.7    4.6
C     1.1   -2.2    4.3
N     0.7   -2.5    2.9
C     1.4   -2.2    1.8
N     2.8   -2.4    1.9
N     0.8   -1.7    0.8
H    -0.8   -0.4    5.5
H     0.0    1.1    5.1
H     1.7   -0.5    5.5
H     1.8   -0.2    3.8
H     0.4   -2.7    5.0
H     2.1   -2.6    4.5
H    -0.3   -2.4    2.7
H     3.1   -3.2    2.5
H     3.3   -2.2    1.1
H     1.4   -1.6   -0.1
N    -3.2    1.4    2.8
C    -3.1    1.0    1.4
H    -3.9    1.9    3.1
H    -4.1    1.0    1.0
H    -2.7    0.0    1.2
H    -2.5    1.7    0.8
