          35
 sphere cut out from bulk 
C    -0.4    0.6    0.1
C    -0.5    0.8    1.6
O     0.3    1.6    2.2
H     0.4    1.2   -0.3
H    -1.3    0.9   -0.4
H    -0.2   -0.5   -0.1
N    -1.4    0.1    2.3
C    -2.3   -0.9    1.9
C    -3.6   -0.8    2.7
O    -3.5   -0.8    3.9
H    -1.4    0.3    3.3
H    -2.5   -0.7    0.8
C    -1.6   -2.3    2.0
C    -2.5   -3.4    1.4
C    -1.8   -4.8    1.5
N    -0.6   -5.0    0.7
C    -0.6   -5.0   -0.6
N     0.7   -4.9   -1.2
N    -1.6   -5.1   -1.4
H    -1.4   -2.5    3.1
H    -0.7   -2.3    1.5
H    -2.8   -3.2    0.4
H    -3.5   -3.5    2.0
H    -2.5   -5.6    1.2
H    -1.6   -5.1    2.5
H     0.2   -4.5    1.2
H     0.7   -5.1   -2.2
H     1.4   -5.4   -0.7
H    -2.5   -5.1   -1.0
N    -4.8   -0.8    2.1
C    -5.0   -0.7    0.7
H    -5.5   -0.7    2.7
H    -6.1   -0.7    0.5
H    -4.7   -1.6    0.1
H    -4.6    0.1    0.2
