          35
 sphere cut out from bulk 
C     0.0   -0.1   -0.0
C    -0.3   -0.2    1.4
O     0.6   -0.4    2.2
H    -0.5   -0.9   -0.7
H     1.1   -0.2   -0.2
H    -0.3    0.9   -0.4
N    -1.6   -0.2    1.9
C    -2.9   -0.1    1.4
C    -3.8   -1.4    1.6
O    -4.9   -1.3    2.1
H    -1.6   -0.3    2.9
H    -3.5    0.6    2.0
C    -3.1    0.4   -0.0
C    -2.9    1.9   -0.2
C    -2.8    2.4   -1.6
N    -4.1    2.2   -2.3
C    -4.3    2.4   -3.6
N    -3.2    2.3   -4.4
N    -5.5    2.4   -4.0
H    -4.2    0.2   -0.3
H    -2.5   -0.1   -0.8
H    -3.6    2.5    0.4
H    -1.9    2.2    0.3
H    -2.0    1.9   -2.1
H    -2.5    3.5   -1.6
H    -4.9    2.4   -1.7
H    -3.3    2.6   -5.4
H    -2.3    2.7   -4.0
H    -5.6    2.5   -5.0
N    -3.3   -2.6    1.3
C    -2.0   -3.0    0.7
H    -3.9   -3.4    1.5
H    -2.0   -4.1    0.5
H    -1.1   -2.8    1.3
H    -1.9   -2.5   -0.3
