          35
 sphere cut out from bulk 
C     0.9    0.1    0.5
C     0.3    0.6    1.8
O     0.7    1.5    2.5
H     1.8   -0.5    0.7
H     1.3    1.1   -0.1
H     0.3   -0.5   -0.2
N    -0.8   -0.2    2.1
C    -1.6    0.1    3.4
C    -1.8    1.6    3.5
O    -2.5    2.2    2.7
H    -1.2   -0.8    1.5
H    -2.6   -0.3    3.1
C    -1.1   -0.8    4.6
C     0.4   -0.7    4.9
C     1.0   -2.0    5.3
N     2.5   -2.0    5.2
C     3.1   -2.0    4.0
N     4.5   -1.9    4.1
N     2.6   -2.2    2.8
H    -1.3   -1.8    4.3
H    -1.8   -0.6    5.4
H     0.5    0.1    5.8
H     0.9   -0.2    4.1
H     0.7   -2.8    4.6
H     0.7   -2.3    6.3
H     3.0   -1.5    6.0
H     5.0   -2.0    3.2
H     4.9   -2.4    4.9
H     1.6   -2.2    2.9
N    -1.4    2.1    4.7
C    -1.4    3.6    4.9
H    -0.6    1.7    5.2
H    -1.3    3.8    5.9
H    -2.4    3.9    4.5
H    -0.7    4.1    4.3
