          35
 sphere cut out from bulk 
C     0.5   -0.4    0.4
C     0.5   -0.2    1.9
O     1.6   -0.2    2.5
H     1.0    0.5   -0.1
H    -0.6   -0.4   -0.1
H     1.0   -1.3    0.1
N    -0.7   -0.1    2.5
C    -0.8    0.0    3.9
C    -0.3   -1.1    4.8
O     0.2   -0.9    5.9
H    -1.6   -0.2    1.9
H    -0.2    0.8    4.2
C    -2.3    0.4    4.3
C    -2.6    0.6    5.8
C    -3.7   -0.4    6.3
N    -3.5   -1.8    5.9
C    -2.8   -2.8    6.6
N    -1.9   -2.3    7.6
N    -3.0   -4.0    6.5
H    -3.0   -0.3    3.8
H    -2.5    1.4    3.8
H    -3.0    1.6    6.0
H    -1.7    0.5    6.4
H    -4.7   -0.1    5.9
H    -3.7   -0.3    7.4
H    -4.2   -2.2    5.3
H    -1.5   -3.1    8.0
H    -1.2   -1.6    7.2
H    -3.8   -4.2    5.9
N    -0.5   -2.4    4.4
C    -1.3   -3.0    3.3
H    -0.2   -3.1    5.1
H    -2.3   -2.4    3.2
H    -1.6   -4.0    3.6
H    -0.8   -3.0    2.3
