          35
 sphere cut out from bulk 
C     0.1    0.9    0.3
C     0.0    0.1    1.6
O     0.9   -0.5    2.1
H     0.8    1.7    0.4
H    -0.9    1.4    0.0
H     0.4    0.2   -0.5
N    -1.2    0.3    2.3
C    -1.4   -0.3    3.7
C    -1.2   -1.8    3.8
O    -0.7   -2.3    4.8
H    -1.9    0.8    1.9
H    -0.6    0.1    4.3
C    -2.8    0.1    4.2
C    -3.2   -0.4    5.5
C    -2.2    0.1    6.7
N    -2.7   -0.3    8.0
C    -3.8    0.4    8.6
N    -4.1   -0.2    9.8
N    -4.3    1.4    8.1
H    -3.5   -0.2    3.4
H    -2.8    1.2    4.2
H    -3.2   -1.5    5.6
H    -4.2   -0.1    5.8
H    -2.2    1.2    6.7
H    -1.2   -0.3    6.5
H    -2.6   -1.3    8.2
H    -4.8    0.3   10.4
H    -3.3   -0.6   10.4
H    -5.0    1.8    8.7
N    -1.7   -2.7    2.8
C    -2.3   -2.4    1.5
H    -1.4   -3.6    3.0
H    -3.0   -1.6    1.6
H    -2.8   -3.3    1.1
H    -1.5   -2.1    0.8
