          35
 sphere cut out from bulk 
C    -0.1    0.2   -0.5
C    -0.1    0.2    1.0
O     0.9    0.3    1.6
H     0.3    1.2   -0.8
H    -1.2    0.2   -0.9
H     0.4   -0.6   -0.9
N    -1.3    0.1    1.6
C    -1.5   -0.1    3.0
C    -2.5   -1.2    3.2
O    -3.4   -1.5    2.3
H    -2.2   -0.2    1.1
H    -0.5   -0.5    3.4
C    -1.9    1.1    3.8
C    -0.9    2.3    3.7
C    -1.3    3.5    4.6
N    -1.2    3.2    6.0
C    -2.3    3.1    6.8
N    -2.0    3.0    8.2
N    -3.5    3.1    6.3
H    -2.0    0.9    4.9
H    -2.9    1.4    3.5
H    -0.9    2.6    2.7
H     0.1    1.9    4.0
H    -2.3    3.8    4.4
H    -0.6    4.3    4.4
H    -0.3    3.5    6.5
H    -2.7    2.7    8.8
H    -1.1    2.4    8.4
H    -4.2    2.9    7.1
N    -2.5   -1.9    4.4
C    -1.6   -1.8    5.5
H    -3.3   -2.6    4.5
H    -1.6   -2.8    6.0
H    -2.0   -1.1    6.2
H    -0.6   -1.5    5.2
