          35
 sphere cut out from bulk 
C     1.2    1.5    1.1
C     0.7    1.1    2.5
O     1.3    1.3    3.5
H     2.1    1.0    1.0
H     1.4    2.6    1.1
H     0.5    1.3    0.3
N    -0.6    0.6    2.6
C    -1.3    0.3    3.8
C    -0.8   -0.9    4.6
O    -1.2   -0.9    5.8
H    -1.1    0.6    1.7
H    -1.1    1.2    4.5
C    -2.8    0.3    3.6
C    -3.3   -0.9    2.8
C    -4.8   -0.9    2.6
N    -5.5   -1.1    3.9
C    -6.9   -1.1    4.0
N    -7.6   -0.4    3.1
N    -7.3   -1.7    5.1
H    -3.1    1.2    3.2
H    -3.3    0.2    4.6
H    -3.0   -1.8    3.2
H    -2.9   -0.9    1.8
H    -5.1   -1.7    1.9
H    -5.2    0.0    2.2
H    -5.0   -1.8    4.5
H    -8.6   -0.6    3.1
H    -7.2   -0.3    2.2
H    -8.3   -1.6    5.2
N    -0.2   -1.9    4.1
C     0.4   -2.2    2.7
H     0.1   -2.6    4.8
H    -0.4   -2.0    2.0
H     1.2   -1.5    2.5
H     0.7   -3.2    2.7
