          35
 sphere cut out from bulk 
C    -0.3    0.7    0.3
C    -0.8    0.7    1.7
O    -0.1    1.0    2.6
H     0.6    1.4    0.2
H    -1.0    1.0   -0.5
H     0.1   -0.3    0.1
N    -2.2    0.5    1.9
C    -3.3    0.3    1.0
C    -4.4    1.3    1.4
O    -4.7    1.4    2.5
H    -2.5    0.6    2.9
H    -2.9    0.4   -0.0
C    -3.9   -1.2    1.1
C    -2.9   -2.3    0.8
C    -2.8   -2.8   -0.6
N    -2.2   -1.8   -1.6
C    -2.9   -1.0   -2.3
N    -2.1   -0.0   -3.0
N    -4.2   -0.9   -2.5
H    -4.8   -1.2    0.4
H    -4.3   -1.2    2.1
H    -3.2   -3.2    1.4
H    -1.9   -2.1    1.2
H    -3.7   -3.1   -1.0
H    -2.1   -3.7   -0.6
H    -1.2   -1.5   -1.3
H    -2.7    0.5   -3.7
H    -1.2   -0.3   -3.3
H    -4.7   -1.6   -1.9
N    -4.9    2.0    0.4
C    -4.5    2.1   -1.0
H    -5.6    2.7    0.7
H    -3.5    2.5   -1.1
H    -5.2    2.9   -1.5
H    -4.6    1.2   -1.5
