          35
 sphere cut out from bulk 
C    -0.4    0.4   -0.2
C    -1.4    0.2    0.9
O    -2.6    0.3    0.8
H     0.6    0.4    0.1
H    -0.7    1.3   -0.8
H    -0.5   -0.5   -0.9
N    -0.8   -0.2    2.1
C    -1.6   -0.3    3.3
C    -0.8    0.2    4.5
O     0.5    0.3    4.4
H     0.2   -0.0    2.3
H    -2.5    0.3    3.2
C    -2.1   -1.8    3.6
C    -1.1   -2.8    4.2
C     0.2   -3.0    3.4
N     0.0   -3.4    1.9
C    -0.7   -4.5    1.6
N    -0.4   -5.7    2.4
N    -1.4   -4.5    0.5
H    -2.4   -2.2    2.6
H    -3.0   -1.8    4.2
H    -0.8   -2.5    5.2
H    -1.6   -3.8    4.3
H     0.8   -3.8    3.9
H     0.9   -2.2    3.4
H    -0.3   -2.6    1.4
H    -0.8   -6.5    1.9
H     0.5   -5.7    2.7
H    -1.8   -5.4    0.2
N    -1.4    0.5    5.7
C    -2.8    0.5    6.0
H    -0.8    0.8    6.4
H    -3.0    1.2    6.7
H    -3.1   -0.5    6.3
H    -3.4    0.7    5.0
