          35
 sphere cut out from bulk 
C    -1.2    0.1   -0.0
C    -1.4   -0.5    1.4
O    -1.1   -1.6    1.7
H    -1.3    1.2   -0.1
H    -1.9   -0.4   -0.7
H    -0.2   -0.3   -0.4
N    -2.0    0.3    2.3
C    -2.2    1.8    2.4
C    -3.0    2.3    1.2
O    -2.9    3.5    0.8
H    -2.0   -0.1    3.2
H    -2.9    1.9    3.2
C    -0.9    2.6    2.8
C     0.3    2.5    1.9
C     0.5    3.3    0.7
N     0.6    4.7    1.0
C     0.1    5.8    0.2
N    -1.0    5.5   -0.5
N     0.6    7.0    0.1
H    -0.7    2.4    3.8
H    -1.2    3.7    2.7
H     0.5    1.4    1.7
H     1.2    2.7    2.6
H    -0.4    3.2    0.0
H     1.3    3.0    0.1
H     1.4    5.0    1.5
H    -1.4    6.3   -0.9
H    -1.7    4.9   -0.0
H     1.5    7.0    0.6
N    -4.0    1.5    0.8
C    -4.9    1.8   -0.3
H    -4.0    0.6    1.2
H    -6.0    1.6   -0.0
H    -4.7    1.2   -1.2
H    -4.8    2.9   -0.5
