          35
 sphere cut out from bulk 
C    -0.7   -1.4    0.1
C    -0.0   -0.4    1.1
O     1.1    0.0    0.8
H    -1.1   -2.3    0.6
H    -0.0   -1.6   -0.7
H    -1.6   -0.9   -0.4
N    -0.6   -0.1    2.2
C    -1.8   -0.4    3.0
C    -1.5   -1.2    4.3
O    -2.2   -0.9    5.3
H    -0.0    0.6    2.8
H    -2.2    0.5    3.4
C    -3.0   -1.1    2.2
C    -4.3   -1.1    3.0
C    -4.8   -2.5    3.5
N    -4.0   -3.1    4.5
C    -3.2   -4.2    4.2
N    -2.5   -4.6    5.4
N    -3.1   -4.9    3.2
H    -2.7   -2.1    2.0
H    -3.1   -0.6    1.3
H    -5.1   -0.7    2.3
H    -4.3   -0.4    3.8
H    -5.0   -3.1    2.6
H    -5.8   -2.3    3.9
H    -3.6   -2.5    5.2
H    -2.1   -5.5    5.2
H    -3.0   -4.5    6.3
H    -3.6   -4.5    2.4
N    -0.7   -2.2    4.4
C    -0.0   -3.0    3.3
H    -0.7   -2.7    5.2
H     0.7   -2.3    2.7
H    -0.7   -3.4    2.6
H     0.5   -3.8    3.7
