          35
 sphere cut out from bulk 
C    -0.4    0.9   -0.1
C    -0.3    0.6    1.4
O     0.8    0.6    2.0
H     0.2    0.2   -0.7
H    -0.1    1.9   -0.3
H    -1.4    0.8   -0.5
N    -1.5    0.3    2.0
C    -1.6   -0.0    3.4
C    -2.9   -0.8    3.6
O    -3.8   -0.7    2.8
H    -2.4    0.2    1.5
H    -0.7   -0.7    3.6
C    -1.5    1.2    4.3
C    -2.7    2.1    4.5
C    -3.1    2.9    3.2
N    -4.1    3.9    3.4
C    -3.8    5.2    3.9
N    -4.9    5.9    4.2
N    -2.6    5.6    4.2
H    -0.6    1.8    4.0
H    -1.2    0.8    5.4
H    -2.5    2.9    5.2
H    -3.6    1.6    4.8
H    -3.5    2.2    2.4
H    -2.2    3.4    2.7
H    -5.0    3.6    3.5
H    -4.6    6.9    4.5
H    -5.6    5.9    3.4
H    -1.9    4.9    4.1
N    -3.0   -1.5    4.8
C    -4.2   -2.2    5.2
H    -2.2   -1.5    5.4
H    -4.0   -3.3    5.3
H    -4.9   -2.0    4.4
H    -4.5   -1.8    6.1
