          35
 sphere cut out from bulk 
C     0.3    0.8    1.2
C     0.5   -0.7    1.5
O     1.5   -1.2    1.9
H     1.3    1.2    1.3
H    -0.3    1.3    1.9
H    -0.1    1.0    0.2
N    -0.7   -1.5    1.3
C    -2.0   -1.0    1.0
C    -2.7   -0.1    2.0
O    -3.4    0.8    1.6
H    -0.5   -2.5    1.6
H    -2.0   -0.4    0.1
C    -2.9   -2.2    0.6
C    -4.3   -1.9    0.2
C    -5.3   -2.6    1.2
N    -5.1   -2.5    2.6
C    -5.6   -1.5    3.4
N    -6.0   -0.4    2.8
N    -5.7   -1.6    4.7
H    -2.4   -2.7   -0.3
H    -2.8   -3.0    1.4
H    -4.5   -0.8    0.3
H    -4.5   -2.2   -0.8
H    -5.4   -3.7    0.9
H    -6.4   -2.2    0.9
H    -4.9   -3.4    3.1
H    -5.4    0.1    2.1
H    -6.3    0.3    3.5
H    -5.5   -2.5    5.0
N    -2.5   -0.4    3.4
C    -2.0   -1.6    4.0
H    -3.1    0.2    3.9
H    -2.4   -1.6    5.1
H    -2.3   -2.5    3.6
H    -0.9   -1.5    4.1
