          35
 sphere cut out from bulk 
C    -0.7    0.2    0.9
C    -0.5   -0.0    2.4
O     0.4   -0.8    2.8
H    -1.2   -0.7    0.5
H     0.2    0.3    0.4
H    -1.4    1.1    0.7
N    -1.3    0.7    3.2
C    -1.1    0.7    4.7
C    -2.5    0.3    5.4
O    -3.0    1.0    6.2
H    -2.0    1.4    2.8
H    -0.4   -0.2    4.8
C    -0.5    2.0    5.2
C    -0.9    3.2    4.5
C    -2.4    3.6    4.6
N    -2.9    4.5    3.5
C    -3.2    4.0    2.3
N    -3.6    5.0    1.4
N    -3.1    2.8    2.0
H     0.6    1.9    5.2
H    -0.8    2.0    6.3
H    -0.7    3.1    3.4
H    -0.3    4.1    4.9
H    -2.6    4.1    5.5
H    -3.0    2.8    4.5
H    -2.5    5.5    3.5
H    -3.9    4.7    0.5
H    -4.2    5.8    1.8
H    -3.5    2.5    1.1
N    -3.0   -1.0    5.1
C    -2.5   -2.0    4.2
H    -3.9   -1.1    5.5
H    -1.4   -2.0    4.1
H    -2.9   -1.9    3.1
H    -2.8   -3.0    4.5
