          35
 sphere cut out from bulk 
C    -0.6   -1.0    1.5
C    -0.4    0.3    2.2
O     0.7    0.7    2.7
H    -1.1   -1.0    0.5
H    -1.2   -1.7    2.1
H     0.4   -1.5    1.4
N    -1.5    1.2    2.2
C    -2.8    1.1    1.6
C    -3.5   -0.2    2.0
O    -3.9   -1.0    1.2
H    -1.2    2.0    2.7
H    -3.4    1.9    2.1
C    -2.9    1.3    0.1
C    -2.2    2.6   -0.4
C    -0.7    2.4   -0.8
N    -0.1    3.6   -1.3
C    -0.3    4.0   -2.6
N     0.3    5.3   -2.9
N    -1.1    3.4   -3.4
H    -3.9    1.3   -0.2
H    -2.5    0.4   -0.4
H    -2.2    3.4    0.4
H    -2.7    3.0   -1.2
H    -0.7    1.6   -1.6
H    -0.1    2.0    0.0
H     0.2    4.3   -0.7
H     0.3    5.5   -3.9
H     1.2    5.3   -2.5
H    -1.1    3.8   -4.3
N    -3.7   -0.5    3.3
C    -3.3    0.3    4.5
H    -4.1   -1.4    3.5
H    -2.2    0.2    4.7
H    -3.9   -0.0    5.4
H    -3.5    1.4    4.3
