          35
 sphere cut out from bulk 
C    -0.9   -1.9    0.6
C    -0.7   -1.5    2.1
O     0.2   -1.9    2.8
H    -0.0   -1.5    0.1
H    -1.8   -1.5    0.2
H    -0.9   -3.0    0.5
N    -1.7   -0.7    2.6
C    -1.6   -0.1    4.0
C    -2.0   -1.2    5.1
O    -1.5   -1.0    6.2
H    -2.4   -0.3    2.0
H    -0.6    0.1    4.2
C    -2.6    1.1    4.0
C    -2.6    1.8    5.4
C    -3.9    2.6    5.7
N    -5.2    1.9    5.3
C    -5.6    0.7    5.9
N    -6.8    0.3    5.3
N    -5.1    0.0    6.8
H    -3.6    0.7    3.8
H    -2.3    1.8    3.2
H    -1.8    2.5    5.5
H    -2.5    1.0    6.2
H    -3.9    3.5    5.1
H    -3.9    2.9    6.7
H    -5.5    2.1    4.4
H    -7.5    1.0    5.2
H    -7.2   -0.5    5.8
H    -4.2    0.4    7.1
N    -2.9   -2.1    4.7
C    -3.4   -3.0    5.7
H    -3.2   -2.2    3.8
H    -2.6   -3.4    6.4
H    -3.8   -3.9    5.2
H    -4.2   -2.5    6.3
