          35
 sphere cut out from bulk 
C    -0.3   -0.2   -0.5
C    -0.3    0.1    1.0
O     0.8    0.2    1.6
H     0.7   -0.6   -0.7
H    -0.4    0.7   -1.0
H    -1.1   -0.9   -0.8
N    -1.5    0.2    1.7
C    -2.9   -0.0    1.2
C    -3.1   -1.4    0.6
O    -3.5   -1.6   -0.6
H    -1.4    0.4    2.6
H    -3.5   -0.0    2.1
C    -3.4    1.0    0.2
C    -3.3    2.5    0.8
C    -2.1    3.2    0.4
N    -2.0    4.6    1.0
C    -1.6    4.7    2.4
N    -1.9    6.0    2.9
N    -1.1    3.9    3.2
H    -4.5    0.8    0.0
H    -2.9    1.0   -0.7
H    -3.4    2.5    1.9
H    -4.2    3.0    0.4
H    -2.0    3.4   -0.7
H    -1.2    2.7    0.7
H    -2.7    5.2    0.7
H    -1.5    6.1    3.8
H    -1.7    6.8    2.2
H    -1.0    3.0    2.7
N    -2.8   -2.5    1.4
C    -2.3   -2.5    2.8
H    -2.9   -3.4    0.9
H    -1.2   -2.3    2.9
H    -2.5   -3.5    3.2
H    -2.9   -1.8    3.4
