          35
 sphere cut out from bulk 
C     0.3    0.3   -0.2
C     0.1    1.4    0.9
O     1.0    2.1    1.2
H     0.2   -0.7    0.2
H     1.3    0.5   -0.6
H    -0.4    0.5   -1.0
N    -1.1    1.4    1.5
C    -2.4    0.7    1.2
C    -2.2   -0.8    1.5
O    -1.8   -1.2    2.6
H    -1.2    2.1    2.3
H    -3.0    0.9    2.1
C    -3.1    1.2    0.0
C    -4.7    0.9    0.1
C    -5.5    2.1    0.7
N    -5.2    2.4    2.1
C    -4.2    3.2    2.5
N    -3.9    4.3    1.7
N    -3.4    3.0    3.6
H    -2.7    0.8   -0.9
H    -3.0    2.3    0.0
H    -4.9   -0.0    0.6
H    -5.1    0.8   -0.9
H    -6.6    1.8    0.7
H    -5.4    3.0    0.2
H    -5.3    1.6    2.8
H    -3.2    4.9    2.1
H    -4.7    4.8    1.4
H    -3.6    2.1    4.1
N    -2.5   -1.8    0.5
C    -2.7   -1.7   -0.9
H    -2.3   -2.7    0.9
H    -2.7   -2.8   -1.3
H    -1.9   -1.2   -1.4
H    -3.7   -1.3   -1.1
