          35
 sphere cut out from bulk 
C     0.1   -0.5    0.4
C    -0.0    0.1    1.8
O     0.9    0.6    2.3
H    -0.9   -0.9   -0.0
H     0.8   -1.2    0.3
H     0.4    0.3   -0.3
N    -1.3   -0.0    2.4
C    -1.5    0.3    3.7
C    -2.3   -0.8    4.4
O    -3.0   -1.5    3.6
H    -2.0   -0.6    1.9
H    -0.5    0.4    4.2
C    -2.3    1.7    3.9
C    -1.6    2.9    3.3
C    -0.2    3.3    3.9
N    -0.0    3.1    5.3
C    -0.7    3.7    6.3
N    -0.4    3.2    7.6
N    -1.6    4.7    6.2
H    -2.5    1.8    5.0
H    -3.3    1.5    3.5
H    -2.3    3.7    3.5
H    -1.5    2.8    2.2
H    -0.0    4.3    3.6
H     0.5    2.7    3.4
H     0.4    2.2    5.6
H    -0.8    3.8    8.3
H     0.6    3.1    7.8
H    -1.8    4.9    5.2
N    -2.2   -1.0    5.7
C    -1.4   -0.3    6.7
H    -2.8   -1.7    6.0
H    -1.4   -0.8    7.6
H    -1.6    0.8    6.8
H    -0.3   -0.4    6.3
