          35
 sphere cut out from bulk 
C    -0.6    0.9    0.2
C    -0.4    0.3    1.6
O     0.6   -0.4    1.9
H    -0.6    0.1   -0.5
H     0.3    1.5    0.0
H    -1.4    1.6    0.1
N    -1.5    0.5    2.5
C    -1.7    0.0    3.8
C    -1.6    1.1    4.9
O    -2.5    1.2    5.7
H    -2.2    1.1    2.1
H    -2.8   -0.1    3.8
C    -1.1   -1.4    4.1
C    -1.7   -2.0    5.4
C    -0.9   -1.6    6.7
N    -1.5   -2.2    7.9
C    -2.7   -1.8    8.5
N    -3.1   -0.4    8.2
N    -3.4   -2.6    9.2
H    -0.0   -1.3    4.2
H    -1.3   -2.0    3.2
H    -2.8   -1.8    5.5
H    -1.6   -3.1    5.3
H    -0.9   -0.5    6.8
H     0.1   -2.0    6.6
H    -1.4   -3.2    8.1
H    -4.0   -0.2    8.5
H    -2.8    0.1    7.4
H    -4.2   -2.2    9.6
N    -0.4    1.7    5.1
C     0.8    1.7    4.3
H    -0.4    2.4    5.9
H     0.9    2.5    3.6
H     0.9    0.7    3.8
H     1.7    1.8    5.0
