          35
 sphere cut out from bulk 
C     0.4   -0.1    1.4
C    -0.2    0.4    2.6
O     0.5    0.8    3.6
H    -0.1    0.2    0.5
H     0.4   -1.2    1.3
H     1.4    0.2    1.3
N    -1.6    0.3    2.8
C    -2.6   -0.1    1.9
C    -2.4   -1.5    1.3
O    -2.3   -1.7    0.1
H    -1.8    0.7    3.7
H    -3.5   -0.2    2.6
C    -3.0    0.9    0.8
C    -3.1    2.4    1.3
C    -4.2    2.5    2.4
N    -4.5    3.9    2.7
C    -5.2    4.8    1.9
N    -5.2    6.1    2.3
N    -5.8    4.3    0.9
H    -3.9    0.6    0.3
H    -2.2    0.9    0.0
H    -3.3    3.0    0.5
H    -2.1    2.7    1.8
H    -4.0    2.0    3.3
H    -5.2    2.2    1.9
H    -3.7    4.4    3.2
H    -5.9    6.7    1.8
H    -5.2    6.2    3.3
H    -6.5    5.0    0.4
N    -2.2   -2.6    2.2
C    -2.3   -2.6    3.6
H    -2.0   -3.4    1.7
H    -1.4   -2.2    4.1
H    -2.5   -3.6    4.0
H    -3.1   -1.9    4.0
