          35
 sphere cut out from bulk 
C     0.4   -2.2    1.3
C     0.5   -0.9    2.1
O     1.5   -0.5    2.6
H    -0.6   -2.6    1.2
H     1.0   -2.9    1.8
H     0.8   -2.0    0.3
N    -0.7   -0.2    2.3
C    -2.0   -0.2    1.6
C    -2.9   -1.4    1.9
O    -3.8   -1.8    1.2
H    -0.5    0.7    2.8
H    -2.5    0.6    2.0
C    -1.9   -0.0    0.1
C    -1.5    1.4   -0.4
C    -0.1    1.9   -0.1
N     1.0    1.0   -0.4
C     1.2    0.4   -1.6
N     0.8    1.1   -2.8
N     1.6   -0.8   -1.6
H    -2.8   -0.3   -0.4
H    -1.1   -0.8   -0.3
H    -2.2    2.1   -0.0
H    -1.6    1.4   -1.5
H     0.0    2.2    0.9
H     0.0    2.9   -0.6
H     1.4    0.5    0.3
H     1.0    0.7   -3.6
H     0.9    2.1   -2.7
H     1.8   -1.1   -2.6
N    -2.6   -2.0    3.1
C    -3.3   -3.1    3.6
H    -1.8   -1.7    3.6
H    -3.7   -2.9    4.7
H    -2.7   -4.0    3.7
H    -4.2   -3.3    3.0
