          35
 sphere cut out from bulk 
C     1.0    0.3    2.7
C     0.2    1.3    3.6
O     0.8    1.8    4.6
H     0.8    0.6    1.6
H     0.6   -0.7    2.8
H     2.0    0.4    2.9
N    -1.1    1.5    3.4
C    -1.9    1.1    2.3
C    -2.6    2.4    1.7
O    -3.0    3.3    2.4
H    -1.5    2.2    4.0
H    -1.3    0.6    1.5
C    -3.1    0.1    2.7
C    -2.6   -1.2    3.2
C    -3.0   -1.6    4.7
N    -2.5   -0.6    5.7
C    -1.2   -0.5    6.0
N    -0.8    0.5    6.8
N    -0.3   -1.4    5.4
H    -3.8    0.0    1.9
H    -3.6    0.7    3.5
H    -1.5   -1.3    3.2
H    -3.0   -2.0    2.6
H    -2.6   -2.6    5.0
H    -4.1   -1.6    4.8
H    -3.0    0.2    5.8
H     0.0    1.0    6.5
H    -1.6    1.1    7.1
H     0.6   -1.2    5.8
N    -2.7    2.4    0.3
C    -3.3    3.5   -0.4
H    -2.3    1.6   -0.2
H    -4.2    3.1   -1.0
H    -2.6    4.0   -1.1
H    -3.6    4.2    0.3
