          35
 sphere cut out from bulk 
C    -1.8    1.0   -0.3
C    -1.0    1.0    1.0
O     0.0    1.7    1.1
H    -2.6    0.1   -0.3
H    -1.1    0.9   -1.1
H    -2.3    1.9   -0.4
N    -1.5    0.3    2.1
C    -2.7   -0.4    2.3
C    -3.0   -1.6    1.4
O    -4.0   -1.7    0.7
H    -0.8    0.4    2.9
H    -2.6   -0.8    3.4
C    -4.0    0.5    2.4
C    -3.8    1.7    3.3
C    -4.8    2.9    3.0
N    -4.8    3.3    1.6
C    -3.8    3.9    0.8
N    -2.7    4.3    1.6
N    -3.8    4.0   -0.5
H    -4.8   -0.1    2.6
H    -4.1    0.9    1.3
H    -2.8    2.1    3.3
H    -4.0    1.4    4.3
H    -4.5    3.8    3.6
H    -5.8    2.6    3.2
H    -5.5    2.9    1.0
H    -1.9    4.6    0.9
H    -2.4    3.7    2.3
H    -4.7    3.8   -0.9
N    -2.0   -2.6    1.4
C    -0.7   -2.6    2.1
H    -2.2   -3.3    0.7
H    -0.4   -3.7    2.0
H    -0.9   -2.4    3.1
H     0.0   -2.0    1.7
