          35
 sphere cut out from bulk 
C    -0.4   -0.1   -0.5
C    -0.1   -0.4    1.0
O     0.9   -0.8    1.4
H     0.6   -0.1   -1.0
H    -0.8    0.9   -0.6
H    -1.1   -0.8   -0.9
N    -1.2   -0.4    1.8
C    -2.6   -0.1    1.5
C    -3.0    1.4    1.2
O    -3.9    1.7    0.5
H    -1.1   -0.7    2.8
H    -2.9   -0.7    0.5
C    -3.5   -0.7    2.6
C    -5.0   -0.8    2.2
C    -5.9   -1.2    3.4
N    -5.6   -2.5    4.0
C    -5.8   -3.7    3.3
N    -5.3   -4.8    4.0
N    -6.4   -3.7    2.2
H    -3.4   -0.0    3.5
H    -3.2   -1.7    2.8
H    -5.1   -1.5    1.4
H    -5.4    0.2    1.8
H    -7.0   -1.3    3.0
H    -5.9   -0.5    4.2
H    -4.8   -2.5    4.6
H    -5.6   -5.7    3.6
H    -5.4   -4.8    5.0
H    -6.6   -4.7    1.9
N    -2.1    2.2    1.8
C    -2.2    3.7    1.7
H    -1.3    1.9    2.3
H    -2.4    4.2    2.6
H    -3.1    3.9    1.1
H    -1.4    4.1    1.1
