          35
 sphere cut out from bulk 
C     1.5    0.3    0.9
C     0.9   -0.3    2.2
O     1.6   -0.9    3.0
H     2.2    1.1    1.2
H     0.8    0.8    0.2
H     2.1   -0.4    0.4
N    -0.5   -0.2    2.3
C    -1.2   -0.8    3.4
C    -1.5   -2.3    3.2
O    -2.6   -2.7    3.0
H    -1.0    0.2    1.5
H    -0.6   -0.6    4.3
C    -2.5    0.0    3.6
C    -2.3    1.5    4.0
C    -3.6    2.3    4.0
N    -4.2    2.5    2.7
C    -5.5    2.1    2.3
N    -6.0    0.9    2.9
N    -6.2    2.6    1.4
H    -3.2   -0.5    4.3
H    -3.1    0.0    2.6
H    -1.6    2.0    3.4
H    -1.9    1.5    5.0
H    -3.5    3.2    4.5
H    -4.4    1.8    4.6
H    -3.9    3.3    2.2
H    -6.8    0.6    2.5
H    -5.3    0.2    3.1
H    -5.8    3.5    1.1
N    -0.4   -3.0    3.4
C    -0.4   -4.5    3.2
H     0.5   -2.5    3.5
H     0.1   -5.0    4.0
H     0.1   -4.8    2.2
H    -1.4   -4.8    3.1
