          35
 sphere cut out from bulk 
C     0.3   -0.8   -0.4
C     0.3   -0.5    1.1
O     0.7   -1.3    1.9
H     1.3   -1.1   -0.7
H    -0.0    0.1   -1.0
H    -0.4   -1.6   -0.6
N    -0.2    0.8    1.4
C    -0.4    1.1    2.8
C    -1.5    2.2    3.0
O    -2.4    2.0    3.7
H    -0.7    1.3    0.7
H    -0.8    0.2    3.3
C     0.9    1.4    3.6
C     0.8    1.5    5.1
C     0.8    2.9    5.7
N    -0.5    3.5    5.5
C    -0.8    4.8    5.1
N     0.4    5.7    5.0
N    -1.9    5.3    4.7
H     1.4    2.4    3.2
H     1.6    0.6    3.3
H     1.7    1.0    5.5
H    -0.0    0.9    5.5
H     1.5    3.5    5.3
H     0.9    2.8    6.8
H    -1.4    2.9    5.5
H     0.1    6.6    4.8
H     1.0    5.6    5.7
H    -2.6    4.6    4.7
N    -1.4    3.3    2.2
C    -0.2    3.9    1.6
H    -2.1    4.0    2.5
H     0.4    4.6    2.3
H    -0.5    4.6    0.8
H     0.5    3.2    1.2
