          35
 sphere cut out from bulk 
C    -2.3    0.1   -1.1
C    -1.3   -0.3   -0.1
O    -0.2   -0.7   -0.3
H    -1.8    0.2   -2.1
H    -2.8    1.1   -0.9
H    -3.1   -0.7   -1.2
N    -1.7   -0.2    1.2
C    -3.1   -0.0    1.8
C    -3.3    1.4    2.3
O    -4.4    1.7    2.9
H    -1.1   -0.6    1.9
H    -3.8   -0.1    0.9
C    -3.5   -1.1    2.8
C    -3.7   -2.5    2.2
C    -5.0   -2.6    1.4
N    -5.2   -3.8    0.7
C    -4.7   -3.9   -0.6
N    -5.0   -5.1   -1.2
N    -4.0   -2.9   -1.2
H    -4.4   -0.7    3.3
H    -2.7   -1.1    3.5
H    -3.7   -3.2    3.0
H    -2.9   -2.7    1.5
H    -5.2   -1.7    0.7
H    -5.9   -2.5    2.1
H    -6.0   -4.4    0.8
H    -4.5   -5.3   -2.1
H    -4.9   -5.9   -0.6
H    -3.7   -3.2   -2.1
N    -2.2    2.2    2.2
C    -2.3    3.6    2.7
H    -1.4    1.9    1.8
H    -1.5    3.8    3.5
H    -3.2    3.8    3.1
H    -2.1    4.3    1.9
