          35
 sphere cut out from bulk 
C    -1.1    0.8    0.5
C    -0.2    0.6    1.6
O     0.7    1.4    2.0
H    -0.9    1.7   -0.0
H    -2.2    0.8    0.9
H    -1.1   -0.0   -0.2
N    -0.2   -0.7    2.3
C    -1.2   -1.7    2.1
C    -2.7   -1.3    2.5
O    -3.6   -1.8    1.8
H     0.4   -0.8    3.0
H    -1.3   -1.9    1.0
C    -0.8   -3.0    2.8
C    -1.7   -4.2    2.7
C    -2.3   -4.6    4.1
N    -2.8   -3.5    4.9
C    -4.2   -3.2    5.0
N    -4.9   -3.5    3.9
N    -4.6   -2.8    6.1
H    -0.6   -2.8    3.9
H     0.2   -3.2    2.4
H    -1.2   -5.0    2.3
H    -2.5   -4.0    2.1
H    -1.5   -5.1    4.7
H    -3.0   -5.4    3.9
H    -2.4   -3.4    5.8
H    -4.5   -3.2    3.0
H    -5.9   -3.3    4.0
H    -5.6   -2.5    6.1
N    -2.9   -0.5    3.6
C    -2.0   -0.1    4.6
H    -3.9   -0.4    3.7
H    -2.6    0.1    5.5
H    -1.4    0.7    4.4
H    -1.4   -1.0    5.0
