          35
 sphere cut out from bulk 
C    -0.2   -2.4    0.4
C     0.3   -1.2    1.3
O     1.5   -1.2    1.6
H    -1.3   -2.5    0.4
H     0.2   -2.2   -0.6
H     0.3   -3.3    0.8
N    -0.5   -0.2    1.6
C    -1.9   -0.1    1.3
C    -2.8   -1.2    1.8
O    -3.6   -1.8    1.1
H    -0.1    0.5    2.1
H    -2.3    0.8    2.0
C    -2.3    0.3   -0.1
C    -2.2    1.8   -0.5
C    -3.5    2.6   -0.2
N    -4.0    2.7    1.2
C    -4.6    1.7    1.9
N    -5.6    0.9    1.2
N    -4.3    1.5    3.1
H    -3.3   -0.1   -0.4
H    -1.6   -0.2   -0.8
H    -2.0    1.9   -1.5
H    -1.4    2.3    0.1
H    -4.3    2.2   -0.8
H    -3.4    3.6   -0.6
H    -3.4    3.2    1.8
H    -5.6   -0.1    1.4
H    -5.6    1.1    0.2
H    -5.0    0.8    3.5
N    -2.6   -1.6    3.1
C    -1.9   -0.9    4.2
H    -3.2   -2.4    3.4
H    -0.8   -1.1    4.1
H    -2.2   -1.3    5.2
H    -2.1    0.1    4.2
