          35
 sphere cut out from bulk 
C    -0.2    0.4    0.4
C    -0.0   -0.3    1.7
O     1.1   -0.8    2.0
H    -0.0   -0.3   -0.4
H     0.5    1.2    0.2
H    -1.2    0.8    0.2
N    -1.1   -0.2    2.6
C    -1.1   -0.9    3.9
C    -2.5   -1.2    4.2
O    -3.5   -0.6    3.6
H    -2.0    0.1    2.2
H    -0.5   -1.8    3.8
C    -0.4   -0.0    5.0
C    -1.1    1.3    5.2
C    -2.2    1.3    6.3
N    -1.6    1.2    7.7
C    -1.9    0.2    8.5
N    -1.1    0.3    9.7
N    -2.7   -0.8    8.2
H     0.6    0.1    4.6
H    -0.3   -0.6    5.9
H    -1.6    1.7    4.3
H    -0.4    2.1    5.5
H    -2.9    0.5    6.2
H    -2.8    2.2    6.3
H    -0.7    1.7    7.8
H    -1.4   -0.4   10.4
H    -1.1    1.2   10.1
H    -2.8   -1.4    9.0
N    -2.8   -2.2    5.0
C    -1.9   -3.0    5.8
H    -3.8   -2.3    5.3
H    -2.3   -4.0    6.0
H    -1.7   -2.5    6.8
H    -0.9   -3.1    5.3
