          35
 sphere cut out from bulk 
C    -0.2    0.4   -0.9
C     0.1   -0.6    0.2
O     1.3   -1.0    0.4
H    -0.6    1.3   -0.5
H    -0.9   -0.0   -1.6
H     0.8    0.6   -1.4
N    -0.9   -1.0    1.0
C    -2.3   -0.9    0.9
C    -2.9   -1.8   -0.1
O    -3.0   -3.0    0.1
H    -0.5   -1.8    1.6
H    -2.7   -1.4    1.9
C    -2.8    0.5    1.0
C    -4.3    0.7    1.4
C    -5.0    2.0    0.9
N    -5.3    2.0   -0.5
C    -4.3    2.2   -1.5
N    -3.4    3.1   -1.2
N    -4.3    1.6   -2.6
H    -2.7    1.0   -0.0
H    -2.2    1.1    1.7
H    -4.4    0.6    2.5
H    -4.9   -0.2    0.9
H    -4.3    2.8    1.2
H    -5.9    2.1    1.5
H    -6.0    1.3   -0.8
H    -2.8    3.4   -2.0
H    -3.7    4.0   -0.7
H    -5.0    0.8   -2.7
N    -3.2   -1.3   -1.3
C    -3.7   -2.1   -2.5
H    -3.2   -0.3   -1.5
H    -3.7   -1.4   -3.4
H    -4.7   -2.5   -2.3
H    -3.0   -2.9   -2.6
