          35
 sphere cut out from bulk 
C    -0.7    0.5   -0.0
C    -0.6    0.2    1.4
O     0.5   -0.0    1.9
H    -0.1   -0.1   -0.6
H    -0.3    1.6   -0.2
H    -1.7    0.5   -0.4
N    -1.7    0.0    2.1
C    -1.8   -0.2    3.6
C    -0.8    0.8    4.3
O    -1.1    2.0    4.1
H    -2.6    0.3    1.6
H    -2.8    0.2    3.9
C    -1.8   -1.7    4.0
C    -1.0   -2.7    3.1
C    -1.1   -4.1    3.7
N    -0.4   -5.1    2.9
C    -1.1   -5.7    1.8
N    -0.2   -6.5    1.1
N    -2.3   -5.4    1.6
H    -2.9   -2.0    3.9
H    -1.6   -1.8    5.0
H     0.1   -2.3    3.1
H    -1.4   -2.7    2.1
H    -2.1   -4.4    3.8
H    -0.6   -4.1    4.7
H     0.6   -5.0    2.8
H    -0.7   -7.0    0.4
H     0.4   -7.1    1.6
H    -2.6   -6.0    0.8
N     0.2    0.4    5.1
C     1.0   -0.8    5.1
H     0.6    1.3    5.5
H     0.5   -1.6    5.5
H     1.9   -0.6    5.7
H     1.4   -0.9    4.0
