          35
 sphere cut out from bulk 
C     2.7    0.6    0.3
C     2.7    0.6    1.9
O     3.7    0.8    2.5
H     1.8    0.2   -0.1
H     3.6    0.0   -0.0
H     2.9    1.6    0.0
N     1.5    0.1    2.4
C     1.2    0.2    3.8
C     0.9   -1.1    4.5
O     0.4   -1.2    5.6
H     0.7    0.1    1.8
H     2.1    0.6    4.3
C     0.1    1.2    4.2
C     0.4    2.7    3.8
C    -0.7    3.6    4.1
N    -0.4    5.0    3.9
C    -0.8    5.7    2.8
N    -1.1    4.9    1.6
N    -0.9    7.0    2.6
H    -0.2    1.1    5.2
H    -0.8    0.9    3.6
H     0.8    2.8    2.8
H     1.3    3.0    4.4
H    -1.0    3.5    5.2
H    -1.6    3.3    3.5
H    -0.2    5.6    4.7
H    -1.3    5.5    0.8
H    -0.4    4.2    1.4
H    -0.9    7.5    3.5
N     1.3   -2.2    3.8
C     1.3   -3.6    4.3
H     1.8   -2.0    2.9
H     0.8   -4.2    3.6
H     0.7   -3.5    5.2
H     2.3   -4.0    4.5
