          35
 sphere cut out from bulk 
C    -1.4   -0.1   -0.1
C    -0.9    0.1    1.4
O     0.1    0.8    1.6
H    -0.6   -0.7   -0.6
H    -1.4    0.8   -0.6
H    -2.3   -0.6   -0.2
N    -1.8   -0.4    2.3
C    -1.6   -0.4    3.8
C    -1.7    1.0    4.4
O    -2.5    1.2    5.3
H    -2.6   -0.8    2.0
H    -2.4   -0.9    4.2
C    -0.2   -1.1    4.2
C    -0.1   -1.2    5.7
C     1.1   -2.0    6.1
N     0.9   -3.4    5.8
C     2.0   -4.3    5.5
N     1.6   -5.6    5.3
N     3.2   -3.8    5.4
H     0.6   -0.6    3.7
H    -0.3   -2.1    3.8
H    -1.0   -1.6    6.2
H     0.1   -0.2    6.1
H     1.3   -1.9    7.2
H     2.0   -1.7    5.6
H     0.2   -3.9    6.3
H     2.4   -6.2    5.0
H     0.7   -5.8    4.9
H     3.9   -4.5    5.0
N    -0.8    2.0    4.0
C    -0.9    3.3    4.5
H    -0.3    1.7    3.2
H    -1.5    3.4    5.3
H    -1.2    4.0    3.7
H     0.1    3.6    4.8
