          35
 sphere cut out from bulk 
C    -0.5   -0.4    0.1
C    -0.8   -1.0    1.4
O    -0.6   -2.2    1.6
H     0.1    0.6    0.2
H    -1.4   -0.1   -0.5
H     0.1   -1.1   -0.5
N    -1.5   -0.2    2.3
C    -2.0    1.1    2.3
C    -3.0    1.3    1.1
O    -4.0    0.6    1.1
H    -1.8   -0.8    3.1
H    -2.6    1.2    3.1
C    -0.9    2.2    2.5
C    -0.2    2.0    3.9
C     0.9    3.1    4.1
N     0.3    4.4    4.2
C     1.1    5.6    4.1
N     0.3    6.7    4.4
N     2.3    5.7    3.9
H    -1.3    3.2    2.4
H    -0.1    2.1    1.7
H     0.3    1.0    3.9
H    -0.9    2.0    4.7
H     1.6    3.1    3.3
H     1.5    2.8    5.0
H    -0.5    4.5    4.9
H     0.9    7.5    4.2
H    -0.6    6.8    4.0
H     2.8    4.8    3.8
N    -2.9    2.2    0.1
C    -1.8    3.1   -0.3
H    -3.7    2.2   -0.5
H    -1.6    4.0    0.4
H    -2.0    3.6   -1.2
H    -0.8    2.6   -0.4
