          35
 sphere cut out from bulk 
C     0.3   -0.5    3.7
C    -0.6    0.4    4.6
O    -0.8    0.1    5.8
H    -0.3   -1.1    3.1
H     0.9   -1.1    4.3
H     0.9    0.1    3.0
N    -1.3    1.4    4.0
C    -1.5    1.7    2.6
C    -1.4    3.2    2.3
O    -1.9    3.7    1.3
H    -1.9    1.9    4.7
H    -0.6    1.3    2.0
C    -2.8    1.1    2.0
C    -4.1    1.4    2.8
C    -4.5    0.4    3.8
N    -4.8   -0.9    3.2
C    -3.9   -2.0    3.2
N    -4.3   -3.0    2.3
N    -2.8   -2.2    3.9
H    -2.6    0.0    1.9
H    -2.9    1.5    1.0
H    -4.9    1.6    2.1
H    -4.0    2.4    3.3
H    -5.4    0.8    4.4
H    -3.7    0.2    4.6
H    -5.4   -0.9    2.4
H    -5.3   -3.1    2.2
H    -3.8   -3.8    2.4
H    -2.6   -1.4    4.5
N    -0.7    4.0    3.2
C    -0.4    5.4    3.0
H    -0.3    3.5    4.0
H     0.6    5.6    2.8
H    -0.7    6.0    3.9
H    -1.0    5.7    2.1
