          35
 sphere cut out from bulk 
C     0.1    1.1   -0.7
C     0.2    0.6    0.8
O     1.2    0.1    1.3
H     0.6    0.3   -1.3
H     0.8    1.9   -0.8
H    -0.9    1.3   -1.0
N    -1.0    0.7    1.5
C    -1.1    0.4    2.9
C    -0.8   -1.0    3.4
O    -0.5   -1.2    4.6
H    -1.8    1.2    1.0
H    -0.2    1.0    3.4
C    -2.4    1.0    3.5
C    -3.6    0.2    3.3
C    -4.3    0.3    2.0
N    -4.9    1.7    1.7
C    -4.3    2.6    0.9
N    -5.0    3.8    0.9
N    -3.1    2.4    0.3
H    -2.5    2.0    3.2
H    -2.1    1.0    4.6
H    -4.4    0.5    4.1
H    -3.4   -0.9    3.5
H    -5.2   -0.4    1.9
H    -3.7    0.1    1.1
H    -5.5    2.0    2.4
H    -4.6    4.5    0.2
H    -6.0    3.8    0.9
H    -2.9    3.1   -0.3
N    -1.1   -2.1    2.6
C    -1.4   -2.2    1.2
H    -0.8   -3.0    3.1
H    -1.7   -3.3    1.0
H    -0.5   -2.0    0.5
H    -2.2   -1.6    0.9
