          35
 sphere cut out from bulk 
C     0.0    0.6   -0.3
C    -0.3   -0.2    0.9
O    -0.1   -1.4    1.0
H     1.1    0.5   -0.5
H    -0.3    1.6   -0.3
H    -0.5    0.1   -1.2
N    -0.9    0.5    1.9
C    -1.2   -0.1    3.3
C    -2.6    0.3    3.7
O    -2.8    1.2    4.5
H    -1.0    1.5    1.8
H    -1.1   -1.2    3.1
C    -0.1    0.3    4.3
C    -0.2   -0.2    5.7
C    -0.7   -1.6    5.9
N    -2.2   -1.6    6.0
C    -3.0   -2.6    5.5
N    -4.3   -2.4    5.6
N    -2.6   -3.8    5.0
H    -0.0    1.4    4.3
H     0.9   -0.0    3.8
H    -0.8    0.5    6.3
H     0.8   -0.1    6.2
H    -0.3   -2.0    6.8
H    -0.4   -2.2    5.1
H    -2.6   -0.7    6.0
H    -4.9   -3.2    5.5
H    -4.6   -1.9    6.5
H    -1.6   -3.9    4.9
N    -3.6   -0.3    3.1
C    -3.5   -1.5    2.2
H    -4.5   -0.1    3.5
H    -2.7   -1.4    1.5
H    -4.5   -1.5    1.6
H    -3.5   -2.4    2.8
