          35
 sphere cut out from bulk 
C    -0.2   -0.2    0.0
C    -0.1   -0.0    1.5
O     0.9    0.1    2.1
H    -1.1   -0.7   -0.4
H     0.7   -0.7   -0.3
H    -0.1    0.8   -0.5
N    -1.3   -0.0    2.2
C    -2.7    0.1    1.7
C    -3.2   -1.2    1.0
O    -4.1   -1.2    0.2
H    -1.2    0.2    3.2
H    -3.3    0.1    2.6
C    -3.0    1.3    0.9
C    -2.7    2.6    1.6
C    -2.9    3.9    0.8
N    -2.6    5.1    1.4
C    -1.3    5.4    1.9
N    -0.3    5.0    1.1
N    -1.2    6.1    3.0
H    -4.1    1.3    0.6
H    -2.4    1.3   -0.1
H    -1.7    2.6    2.0
H    -3.4    2.7    2.5
H    -4.0    3.9    0.4
H    -2.3    3.8   -0.2
H    -3.3    5.5    2.1
H     0.6    4.9    1.5
H    -0.5    4.4    0.3
H    -0.2    6.3    3.2
N    -2.6   -2.4    1.3
C    -2.9   -3.7    0.8
H    -1.8   -2.3    2.0
H    -2.1   -4.1    0.2
H    -3.8   -3.5    0.1
H    -3.2   -4.4    1.6
