          35
 sphere cut out from bulk 
C     0.8    1.4   -0.1
C     0.4    1.2    1.3
O     0.9    1.9    2.2
H     0.7    2.5   -0.4
H     0.2    0.8   -0.8
H     1.9    1.2   -0.2
N    -0.6    0.3    1.5
C    -1.1   -0.2    2.8
C    -2.5    0.5    3.1
O    -3.5   -0.0    2.8
H    -0.9   -0.2    0.7
H    -1.5   -1.2    2.5
C    -0.1   -0.5    3.9
C    -0.7   -1.0    5.2
C    -1.9   -2.0    5.1
N    -1.6   -3.1    4.2
C    -2.6   -3.8    3.5
N    -3.7   -3.1    3.2
N    -2.4   -5.1    3.3
H     0.5    0.4    4.1
H     0.5   -1.3    3.5
H     0.1   -1.4    5.8
H    -1.1   -0.1    5.8
H    -2.8   -1.5    4.8
H    -2.1   -2.4    6.1
H    -0.8   -3.7    4.5
H    -4.4   -3.6    2.6
H    -3.6   -2.1    3.0
H    -3.1   -5.5    2.7
N    -2.5    1.7    3.7
C    -1.4    2.5    4.2
H    -3.4    2.0    3.9
H    -1.2    2.3    5.3
H    -0.5    2.4    3.7
H    -1.6    3.6    4.1
