          35
 sphere cut out from bulk 
C    -0.7   -0.6    0.8
C    -0.9   -0.2    2.3
O    -0.1   -0.3    3.1
H    -0.3    0.3    0.3
H    -1.5   -1.0    0.3
H     0.1   -1.4    0.8
N    -2.2    0.1    2.6
C    -3.3    0.5    1.7
C    -4.0   -0.7    1.0
O    -4.7   -0.6   -0.0
H    -2.3    0.5    3.5
H    -4.1    0.9    2.4
C    -3.1    1.7    0.7
C    -2.6    2.9    1.4
C    -2.4    4.1    0.4
N    -3.7    4.5   -0.2
C    -4.8    5.0    0.5
N    -4.4    5.8    1.6
N    -6.0    4.8    0.3
H    -4.0    1.8    0.2
H    -2.4    1.3   -0.1
H    -1.6    2.8    1.9
H    -3.3    3.2    2.2
H    -1.7    3.9   -0.4
H    -2.0    5.0    1.0
H    -4.0    4.0   -1.0
H    -5.2    6.3    2.0
H    -3.6    6.5    1.4
H    -6.1    4.1   -0.4
N    -3.8   -1.9    1.6
C    -4.4   -3.1    1.2
H    -3.2   -1.9    2.5
H    -5.0   -2.9    0.3
H    -5.0   -3.6    1.9
H    -3.6   -3.9    0.9
