          35
 sphere cut out from bulk 
C     0.6    0.1   -0.3
C     0.2    0.2    1.2
O     1.0   -0.2    2.0
H     1.5    0.7   -0.5
H    -0.2    0.5   -1.0
H     0.8   -0.9   -0.6
N    -1.0    0.7    1.5
C    -1.5    0.8    2.8
C    -2.5   -0.4    3.0
O    -3.6   -0.3    2.5
H    -1.7    0.9    0.7
H    -0.6    0.7    3.5
C    -2.1    2.1    3.1
C    -2.7    2.3    4.5
C    -1.6    2.2    5.6
N    -2.2    2.5    6.9
C    -1.5    2.2    8.1
N    -0.1    2.5    8.0
N    -2.2    1.8    9.1
H    -3.0    2.3    2.4
H    -1.4    2.9    2.9
H    -3.4    1.5    4.7
H    -3.2    3.3    4.6
H    -0.8    3.0    5.4
H    -1.1    1.3    5.6
H    -3.2    2.1    7.0
H     0.3    2.5    8.9
H     0.1    3.2    7.4
H    -1.6    1.8   10.0
N    -2.1   -1.4    3.9
C    -0.9   -1.6    4.5
H    -2.8   -2.1    4.0
H    -0.7   -2.7    4.7
H    -0.8   -1.1    5.5
H    -0.0   -1.3    3.9
