          35
 sphere cut out from bulk 
C     0.1    0.0    0.6
C    -0.1    0.1    2.1
O     0.8    0.1    2.9
H    -0.0    1.0    0.1
H    -0.5   -0.7    0.1
H     1.2   -0.3    0.4
N    -1.4    0.3    2.5
C    -2.7    0.2    1.9
C    -3.1   -1.2    1.5
O    -2.3   -2.0    1.1
H    -1.4    0.3    3.5
H    -3.4    0.6    2.7
C    -2.9    1.2    0.7
C    -2.5    2.6    0.9
C    -3.4    3.3    2.0
N    -3.1    4.7    2.0
C    -3.7    5.7    2.9
N    -4.9    5.3    3.4
N    -3.1    6.8    3.1
H    -4.0    1.1    0.4
H    -2.3    0.8   -0.2
H    -2.7    3.2   -0.0
H    -1.5    2.7    1.2
H    -3.2    2.8    3.0
H    -4.5    3.2    1.8
H    -2.1    5.0    1.8
H    -5.2    5.8    4.2
H    -5.1    4.3    3.5
H    -3.6    7.4    3.7
N    -4.4   -1.5    1.6
C    -5.5   -0.7    2.2
H    -4.7   -2.5    1.4
H    -5.3   -0.5    3.3
H    -6.4   -1.3    2.2
H    -5.7    0.2    1.7
