          35
 sphere cut out from bulk 
C    -0.3    0.0    0.2
C    -0.2    0.0    1.7
O     0.8   -0.1    2.3
H     0.2   -0.9   -0.2
H     0.3    0.9   -0.2
H    -1.3    0.1   -0.3
N    -1.5    0.2    2.3
C    -1.8    0.0    3.7
C    -3.3    0.3    4.0
O    -3.9   -0.2    4.9
H    -2.3    0.1    1.7
H    -1.6   -1.0    4.0
C    -0.9    0.8    4.7
C    -0.9    2.4    4.7
C    -0.2    3.0    3.5
N     1.2    2.7    3.4
C     2.2    3.2    4.2
N     3.4    2.6    4.2
N     2.1    4.3    5.0
H     0.1    0.5    4.6
H    -1.2    0.5    5.7
H    -0.5    2.7    5.6
H    -2.0    2.7    4.6
H    -0.2    4.1    3.6
H    -0.6    2.8    2.5
H     1.4    1.7    3.1
H     4.2    3.1    4.7
H     3.7    2.3    3.3
H     1.1    4.6    5.1
N    -3.8    1.3    3.2
C    -5.2    1.8    3.4
H    -3.2    1.8    2.6
H    -5.7    2.0    2.5
H    -5.2    2.6    4.1
H    -5.8    0.9    3.9
