          35
 sphere cut out from bulk 
C     0.2   -0.4    0.3
C     0.5   -0.2    1.8
O     1.5   -0.6    2.3
H    -0.8   -0.8    0.1
H     0.9   -1.0   -0.1
H     0.2    0.6   -0.2
N    -0.5    0.5    2.5
C    -1.8    0.9    2.1
C    -1.7    2.1    1.1
O    -1.0    3.1    1.3
H    -0.2    0.6    3.5
H    -2.3    0.1    1.6
C    -2.6    1.4    3.3
C    -2.8    0.3    4.4
C    -2.4    0.8    5.8
N    -1.7   -0.2    6.6
C    -0.3   -0.4    6.3
N     0.3   -1.3    7.2
N     0.2    0.3    5.4
H    -3.5    1.8    3.0
H    -2.0    2.2    3.8
H    -2.1   -0.5    4.2
H    -3.8   -0.1    4.4
H    -3.3    1.0    6.4
H    -1.9    1.7    5.8
H    -1.9   -0.4    7.5
H     1.3   -1.5    6.9
H    -0.2   -2.1    7.4
H     1.2    0.0    5.2
N    -2.6    2.0    0.1
C    -2.7    3.0   -1.0
H    -3.1    1.1   -0.0
H    -3.8    3.4   -1.0
H    -2.4    2.6   -1.9
H    -2.1    3.9   -0.7
