          35
 sphere cut out from bulk 
C     0.4    1.1    0.7
C    -0.1   -0.2    1.4
O     0.5   -1.2    1.4
H     1.4    1.3    1.1
H    -0.3    2.0    0.8
H     0.5    0.9   -0.3
N    -1.4   -0.0    2.0
C    -2.0   -1.1    2.7
C    -3.2   -1.5    1.8
O    -4.2   -0.7    1.7
H    -1.9    0.8    1.9
H    -1.3   -1.9    2.7
C    -2.5   -0.8    4.1
C    -3.0   -2.0    4.9
C    -1.9   -2.9    5.4
N    -2.4   -4.1    6.1
C    -2.8   -5.3    5.4
N    -2.0   -5.6    4.3
N    -3.8   -6.0    5.8
H    -3.3   -0.1    4.0
H    -1.7   -0.3    4.6
H    -3.7   -2.6    4.2
H    -3.6   -1.7    5.7
H    -1.3   -2.3    6.1
H    -1.2   -3.2    4.6
H    -3.0   -3.9    6.9
H    -1.0   -5.5    4.4
H    -2.3   -6.5    4.0
H    -4.3   -5.6    6.5
N    -3.2   -2.7    1.1
C    -2.2   -3.7    1.2
H    -4.0   -2.9    0.6
H    -2.3   -4.4    0.3
H    -2.2   -4.3    2.1
H    -1.2   -3.3    1.0
