          35
 sphere cut out from bulk 
C    -0.2    0.2   -0.3
C    -0.6    1.0    0.9
O    -0.6    2.3    0.9
H    -0.3   -0.8   -0.2
H     0.8    0.5   -0.6
H    -0.9    0.6   -1.1
N    -0.9    0.3    2.0
C    -1.2    0.8    3.3
C    -1.9    2.2    3.3
O    -1.4    3.1    4.0
H    -0.7   -0.7    2.0
H    -2.0    0.1    3.8
C    -0.1    0.8    4.3
C     1.2    1.5    3.9
C     2.2    0.7    3.1
N     2.5   -0.6    3.6
C     1.9   -1.8    3.2
N     1.9   -2.8    4.1
N     1.3   -2.0    2.0
H     0.1   -0.3    4.6
H    -0.4    1.2    5.3
H     1.8    1.8    4.8
H     1.0    2.4    3.4
H     3.2    1.3    3.0
H     1.8    0.6    2.0
H     2.8   -0.6    4.6
H     1.7   -3.7    3.7
H     2.6   -2.8    4.8
H     1.4   -1.2    1.4
N    -3.1    2.3    2.7
C    -3.8    1.4    1.8
H    -3.5    3.3    2.7
H    -4.8    1.6    1.8
H    -3.7    0.4    2.2
H    -3.4    1.4    0.8
