          35
 sphere cut out from bulk 
C    -0.9   -0.3   -0.6
C    -0.6    0.1    0.8
O     0.3    0.9    1.1
H     0.0   -0.8   -1.0
H    -1.1    0.6   -1.2
H    -1.7   -1.0   -0.7
N    -1.4   -0.6    1.8
C    -1.3   -0.6    3.2
C    -2.5    0.1    3.9
O    -3.1   -0.5    4.8
H    -2.0   -1.3    1.4
H    -1.5   -1.6    3.5
C     0.1   -0.2    3.9
C     0.1   -0.4    5.4
C     0.0   -1.9    5.9
N    -0.0   -1.9    7.3
C     0.5   -3.0    8.0
N     0.3   -2.9    9.4
N     1.2   -3.9    7.4
H     0.3    0.8    3.6
H     0.8   -0.9    3.4
H    -0.7    0.2    5.8
H     1.1    0.0    5.7
H     0.9   -2.4    5.6
H    -0.8   -2.4    5.4
H    -0.8   -1.5    7.7
H     0.2   -3.8    9.8
H    -0.4   -2.3    9.7
H     1.6   -4.6    8.1
N    -2.7    1.4    3.6
C    -2.1    2.3    2.7
H    -3.5    1.8    4.2
H    -2.1    3.4    3.1
H    -2.7    2.4    1.7
H    -1.1    2.0    2.5
