          35
 sphere cut out from bulk 
C    -0.2    0.2   -0.2
C    -0.1    0.4    1.3
O     1.0    0.8    1.9
H    -1.2   -0.1   -0.5
H     0.6   -0.5   -0.5
H     0.1    1.2   -0.7
N    -1.2    0.1    2.0
C    -1.4    0.1    3.5
C    -1.9    1.6    3.9
O    -3.1    1.8    3.8
H    -2.0   -0.1    1.5
H    -2.3   -0.4    3.6
C    -0.3   -0.6    4.3
C    -0.7   -0.6    5.8
C     0.3   -1.5    6.6
N     0.3   -2.9    6.3
C     1.2   -3.5    5.5
N     0.9   -4.9    5.4
N     2.2   -3.0    4.9
H     0.7   -0.1    4.1
H    -0.2   -1.6    3.9
H    -1.7   -1.1    5.9
H    -0.7    0.4    6.2
H     0.0   -1.3    7.7
H     1.3   -1.1    6.5
H    -0.6   -3.4    6.5
H     1.7   -5.3    4.8
H     0.7   -5.4    6.2
H     2.3   -2.0    4.9
N    -1.0    2.5    4.3
C     0.5    2.5    4.4
H    -1.5    3.4    4.5
H     0.8    2.1    5.4
H     0.8    3.6    4.4
H     0.9    1.9    3.6
