          35
 sphere cut out from bulk 
C     0.3    0.8    0.3
C     0.2    0.4    1.8
O     1.2    0.4    2.5
H     0.7    1.8    0.2
H    -0.6    0.7   -0.2
H     1.1    0.1   -0.1
N    -1.0    0.1    2.2
C    -1.4   -0.2    3.6
C    -1.1   -1.7    4.0
O    -1.9   -2.5    4.4
H    -1.8    0.0    1.5
H    -0.7    0.4    4.2
C    -2.9    0.2    3.9
C    -3.9   -0.5    2.9
C    -5.2   -0.9    3.6
N    -4.9   -2.0    4.6
C    -5.6   -2.2    5.7
N    -5.0   -3.0    6.6
N    -6.7   -1.6    5.9
H    -3.0    1.3    3.8
H    -3.1   -0.1    4.9
H    -3.5   -1.4    2.4
H    -4.2    0.2    2.1
H    -5.9   -1.2    2.9
H    -5.6   -0.1    4.2
H    -3.9   -2.3    4.6
H    -5.7   -3.5    7.3
H    -4.4   -3.7    6.2
H    -7.2   -1.8    6.8
N     0.2   -2.0    3.9
C     0.8   -3.3    4.3
H     0.9   -1.2    3.6
H     1.2   -3.7    3.4
H    -0.0   -3.9    4.6
H     1.5   -3.2    5.1
