          35
 sphere cut out from bulk 
C    -1.1    0.3   -0.8
C    -1.3    0.6    0.7
O    -0.5    1.2    1.4
H    -0.2   -0.2   -0.9
H    -0.9    1.3   -1.3
H    -1.9   -0.2   -1.3
N    -2.5    0.1    1.2
C    -2.9    0.2    2.6
C    -3.3    1.6    3.0
O    -4.5    1.8    3.5
H    -3.1   -0.3    0.5
H    -3.8   -0.4    2.6
C    -1.9   -0.5    3.5
C    -2.4   -1.1    4.8
C    -3.1   -0.1    5.8
N    -2.3    1.0    6.1
C    -2.7    2.2    6.7
N    -4.0    2.5    6.4
N    -2.0    3.0    7.3
H    -1.1    0.2    3.8
H    -1.4   -1.3    3.0
H    -1.6   -1.6    5.3
H    -3.2   -1.9    4.6
H    -3.4   -0.7    6.7
H    -4.0    0.2    5.4
H    -1.3    0.8    6.5
H    -4.2    3.5    6.7
H    -4.4    2.3    5.5
H    -1.1    2.6    7.6
N    -2.4    2.5    2.9
C    -2.6    3.9    3.4
H    -1.5    2.3    2.5
H    -2.1    4.6    2.7
H    -2.2    4.1    4.4
H    -3.7    4.1    3.4
