          35
 sphere cut out from bulk 
C    -1.3    0.1    0.9
C    -0.7    0.5    2.2
O     0.3    1.2    2.2
H    -0.6   -0.5    0.3
H    -1.6    1.0    0.3
H    -2.2   -0.5    1.0
N    -1.3   -0.0    3.3
C    -0.8    0.1    4.7
C    -0.8    1.4    5.4
O    -1.1    1.5    6.6
H    -2.1   -0.6    3.2
H    -1.5   -0.5    5.3
C     0.6   -0.6    4.9
C     0.7   -2.1    4.7
C    -0.4   -2.9    5.5
N    -0.7   -2.5    6.8
C    -2.0   -2.1    7.2
N    -2.0   -1.1    8.2
N    -3.1   -2.6    6.8
H     0.9   -0.3    6.0
H     1.3   -0.1    4.3
H     1.7   -2.4    5.1
H     0.6   -2.4    3.7
H    -0.1   -4.0    5.4
H    -1.4   -2.8    4.9
H     0.1   -2.0    7.3
H    -2.9   -0.9    8.5
H    -1.5   -0.2    7.9
H    -2.9   -3.5    6.2
N    -0.5    2.5    4.7
C    -0.4    3.8    5.2
H    -0.1    2.3    3.7
H    -0.7    4.6    4.5
H     0.7    4.1    5.5
H    -1.0    3.9    6.1
