          35
 sphere cut out from bulk 
C    -0.2    0.7   -0.0
C    -0.2    0.6    1.5
O     0.9    0.8    2.1
H     0.5   -0.0   -0.4
H     0.1    1.7   -0.3
H    -1.2    0.5   -0.5
N    -1.4    0.3    2.1
C    -1.5    0.0    3.5
C    -3.0   -0.4    3.8
O    -3.2   -1.2    4.8
H    -2.1   -0.1    1.4
H    -0.9   -0.8    3.8
C    -1.1    1.2    4.4
C    -1.8    2.5    4.2
C    -3.0    2.9    5.2
N    -3.7    4.1    4.9
C    -4.6    4.2    3.9
N    -4.9    5.5    3.5
N    -5.2    3.2    3.2
H    -0.0    1.3    4.3
H    -1.3    0.9    5.5
H    -2.2    2.6    3.1
H    -1.1    3.4    4.2
H    -2.6    2.9    6.2
H    -3.7    2.0    5.2
H    -3.1    4.9    5.0
H    -5.7    5.5    3.0
H    -5.0    6.2    4.3
H    -4.8    2.3    3.5
N    -4.0    0.0    3.0
C    -5.4   -0.3    3.2
H    -3.8    0.8    2.3
H    -6.0    0.2    2.5
H    -5.7   -0.0    4.2
H    -5.5   -1.4    3.1
