          35
 sphere cut out from bulk 
C     0.0    1.3    1.9
C    -0.8    0.4    2.8
O    -0.4    0.0    3.9
H     0.9    1.6    2.5
H    -0.6    2.1    1.6
H     0.4    0.8    1.0
N    -2.0   -0.1    2.4
C    -2.6    0.1    1.1
C    -3.5    1.3    1.0
O    -4.1    1.6   -0.1
H    -2.4   -0.8    3.0
H    -1.8    0.4    0.3
C    -3.3   -1.2    0.5
C    -4.2   -1.9    1.4
C    -5.4   -1.1    2.0
N    -6.2   -0.4    1.0
C    -7.2    0.5    1.4
N    -8.0    0.0    2.5
N    -7.5    1.6    0.9
H    -2.5   -1.9    0.2
H    -3.8   -0.9   -0.4
H    -3.7   -2.4    2.2
H    -4.7   -2.7    0.8
H    -5.0   -0.4    2.8
H    -6.0   -1.8    2.6
H    -5.7    0.0    0.3
H    -8.8    0.6    2.7
H    -8.2   -1.0    2.6
H    -6.8    1.8    0.2
N    -3.7    2.1    2.1
C    -4.5    3.2    2.2
H    -3.2    1.8    2.9
H    -4.6    3.7    1.2
H    -4.2    3.9    2.9
H    -5.6    2.9    2.5
