          35
 sphere cut out from bulk 
C    -0.1   -0.1   -0.2
C    -0.1   -0.2    1.3
O     1.0   -0.4    1.9
H     0.8   -0.3   -0.6
H    -0.4    1.0   -0.5
H    -0.9   -0.7   -0.7
N    -1.2   -0.1    2.1
C    -2.6    0.0    2.0
C    -3.4   -1.2    2.4
O    -4.3   -1.1    3.2
H    -0.9   -0.2    3.1
H    -3.0    0.7    2.7
C    -3.2    0.5    0.6
C    -3.0    2.0    0.4
C    -3.4    2.5   -1.0
N    -2.5    2.2   -2.1
C    -2.6    1.0   -2.8
N    -1.5    0.8   -3.6
N    -3.5    0.1   -2.8
H    -4.2    0.3    0.6
H    -2.8   -0.1   -0.2
H    -1.9    2.3    0.6
H    -3.6    2.6    1.1
H    -3.4    3.6   -1.0
H    -4.4    2.2   -1.3
H    -1.6    2.6   -2.0
H    -1.6    0.0   -4.3
H    -1.1    1.6   -4.1
H    -4.2    0.3   -2.1
N    -3.0   -2.5    1.9
C    -2.1   -2.9    0.9
H    -3.6   -3.2    2.3
H    -2.2   -2.3   -0.0
H    -2.2   -3.9    0.7
H    -1.0   -2.7    1.2
