          35
 sphere cut out from bulk 
C     1.0   -0.0    0.1
C     0.7    0.1    1.6
O     1.4    0.7    2.4
H     1.2    1.0   -0.2
H     0.2   -0.5   -0.5
H     2.0   -0.6    0.0
N    -0.5   -0.5    2.0
C    -0.9   -0.5    3.4
C    -0.5   -1.9    4.0
O    -0.9   -2.9    3.5
H    -1.0   -1.1    1.3
H    -0.4    0.3    3.9
C    -2.4   -0.3    3.5
C    -2.9   -0.2    5.0
C    -3.2   -1.5    5.8
N    -4.2   -2.3    5.1
C    -4.2   -3.7    5.2
N    -3.0   -4.3    5.1
N    -5.4   -4.3    5.4
H    -3.0   -1.2    3.1
H    -2.7    0.5    2.9
H    -3.9    0.4    4.9
H    -2.2    0.5    5.5
H    -3.5   -1.2    6.8
H    -2.3   -2.1    5.8
H    -5.2   -1.9    5.2
H    -3.0   -5.3    5.0
H    -2.3   -3.9    4.5
H    -5.3   -5.3    5.3
N     0.5   -1.9    5.0
C     1.2   -0.7    5.5
H     0.7   -2.8    5.3
H     2.0   -1.1    6.1
H     0.5   -0.2    6.2
H     1.5   -0.0    4.8
