          35
 sphere cut out from bulk 
C     0.7    0.3    1.2
C    -0.2   -0.8    1.4
O     0.1   -2.0    1.5
H     0.8    1.0    2.1
H     0.5    1.0    0.4
H     1.7   -0.1    1.1
N    -1.6   -0.4    1.5
C    -2.2    0.9    1.6
C    -1.8    1.7    2.8
O    -1.6    2.9    2.7
H    -2.2   -1.2    1.6
H    -1.8    1.5    0.8
C    -3.7    0.8    1.3
C    -4.4    2.1    1.5
C    -5.0    2.4    2.9
N    -5.5    3.7    3.1
C    -4.9    4.7    4.0
N    -3.6    4.4    4.4
N    -5.5    5.7    4.5
H    -4.1    0.1    2.0
H    -3.8    0.4    0.3
H    -5.3    2.1    0.8
H    -3.8    3.0    1.2
H    -4.2    2.2    3.6
H    -5.8    1.6    3.1
H    -6.4    3.9    2.9
H    -3.3    5.2    4.9
H    -3.0    4.1    3.7
H    -6.5    5.7    4.2
N    -1.8    1.1    4.0
C    -2.1   -0.2    4.5
H    -1.6    1.8    4.8
H    -3.1   -0.5    4.0
H    -2.2   -0.2    5.5
H    -1.4   -1.0    4.2
