          35
 sphere cut out from bulk 
C    -0.7   -1.7   -0.2
C    -1.1   -0.5    0.7
O    -1.2    0.6    0.3
H    -1.5   -1.7   -1.0
H    -0.6   -2.6    0.3
H     0.2   -1.5   -0.7
N    -1.1   -0.8    2.1
C    -1.4    0.0    3.2
C    -2.7    0.9    3.3
O    -3.2    1.1    4.4
H    -1.0   -1.8    2.3
H    -1.6   -0.7    4.0
C    -0.2    0.8    3.7
C     0.4    2.0    2.9
C     1.5    1.6    1.9
N     2.1    2.8    1.3
C     1.6    3.5    0.3
N     2.3    4.7    0.0
N     0.6    3.2   -0.5
H     0.7    0.1    3.9
H    -0.5    1.2    4.7
H     0.8    2.7    3.6
H    -0.5    2.5    2.4
H     1.1    1.0    1.1
H     2.2    1.0    2.4
H     2.6    3.4    2.0
H     2.0    5.1   -0.9
H     3.3    4.6    0.0
H     0.1    2.4   -0.1
N    -3.1    1.5    2.1
C    -4.2    2.4    2.1
H    -2.5    1.4    1.3
H    -4.5    2.6    1.0
H    -4.0    3.4    2.5
H    -5.0    2.0    2.6
