          35
 sphere cut out from bulk 
C    -2.2    0.5    0.4
C    -1.7    0.3    1.8
O    -1.7    1.2    2.6
H    -1.9   -0.4   -0.3
H    -1.7    1.4   -0.0
H    -3.2    0.7    0.4
N    -1.3   -1.0    2.1
C    -1.0   -1.4    3.5
C     0.4   -2.1    3.7
O     0.6   -2.8    4.7
H    -1.5   -1.7    1.5
H    -0.9   -0.5    4.1
C    -2.1   -2.3    4.1
C    -3.5   -1.6    4.1
C    -3.6   -0.4    5.1
N    -4.8    0.3    5.0
C    -5.9    0.2    5.9
N    -5.9   -1.0    6.6
N    -6.8    1.1    6.1
H    -1.8   -2.6    5.1
H    -2.2   -3.2    3.5
H    -4.3   -2.3    4.4
H    -3.8   -1.2    3.1
H    -2.8    0.3    4.9
H    -3.4   -0.8    6.1
H    -4.8    1.2    4.6
H    -6.8   -1.1    7.1
H    -5.7   -1.8    6.1
H    -6.6    2.0    5.7
N     1.3   -1.9    2.7
C     2.6   -2.3    2.8
H     1.0   -1.2    2.0
H     3.3   -1.5    2.9
H     2.9   -2.8    1.8
H     2.7   -3.0    3.6
