          35
 sphere cut out from bulk 
C    -0.1   -1.7    1.0
C    -0.0   -0.6    2.1
O     1.1   -0.2    2.5
H     0.6   -1.5    0.2
H    -1.1   -1.8    0.6
H     0.2   -2.7    1.5
N    -1.2   -0.3    2.6
C    -1.6    0.5    3.9
C    -0.9    1.9    4.1
O    -1.6    2.7    4.8
H    -2.0   -0.7    2.3
H    -2.6    0.7    3.8
C    -1.4   -0.4    5.2
C    -0.0   -0.8    5.5
C     0.1   -2.1    6.4
N    -0.6   -3.3    5.8
C    -0.3   -3.9    4.6
N    -1.3   -4.8    4.2
N     0.7   -3.7    3.9
H    -2.0   -1.3    5.0
H    -1.9    0.1    6.0
H     0.5   -0.0    6.1
H     0.6   -0.9    4.6
H    -0.3   -1.9    7.4
H     1.1   -2.4    6.5
H    -1.6   -3.3    6.1
H    -0.9   -5.3    3.4
H    -1.6   -5.4    5.0
H     1.3   -2.9    4.2
N     0.3    2.1    3.6
C     0.9    3.4    3.9
H     0.8    1.4    3.1
H     1.7    3.5    3.1
H     1.4    3.5    4.9
H     0.2    4.2    3.7
