          35
 sphere cut out from bulk 
C     0.3    0.5    0.3
C     0.1   -0.2    1.6
O     0.9   -0.9    2.2
H     0.6   -0.3   -0.4
H     1.2    1.1    0.4
H    -0.5    1.0   -0.1
N    -1.1    0.1    2.2
C    -1.6   -0.6    3.4
C    -3.0   -1.2    3.3
O    -3.2   -2.4    3.4
H    -1.8    0.5    1.6
H    -0.9   -1.6    3.5
C    -1.4    0.1    4.8
C     0.1    0.4    5.2
C     0.7    1.7    4.5
N     1.9    2.1    5.0
C     3.1    1.6    4.6
N     4.2    2.1    5.3
N     3.4    0.8    3.6
H    -1.8   -0.5    5.5
H    -1.9    1.1    4.8
H     0.7   -0.4    4.9
H     0.1    0.5    6.2
H    -0.1    2.5    4.7
H     0.8    1.6    3.4
H     1.9    2.4    6.0
H     5.1    1.8    4.9
H     4.2    3.1    5.5
H     2.5    0.3    3.3
N    -4.0   -0.3    2.9
C    -4.0    1.2    3.0
H    -4.9   -0.8    2.9
H    -4.7    1.6    2.2
H    -3.1    1.6    2.9
H    -4.5    1.5    4.0
