          35
 sphere cut out from bulk 
C     0.3   -1.8    0.5
C     0.2   -1.6    2.0
O     1.0   -2.1    2.8
H     1.3   -1.5    0.1
H    -0.4   -1.2   -0.1
H     0.2   -2.9    0.3
N    -0.8   -0.7    2.3
C    -1.1   -0.5    3.7
C    -2.6   -0.6    3.9
O    -3.4   -0.3    2.9
H    -1.5   -0.4    1.7
H    -0.6   -1.2    4.3
C    -0.7    0.9    4.2
C     0.8    1.1    4.3
C     1.2    2.5    4.7
N     0.7    3.1    5.9
C     1.1    2.6    7.1
N     0.4    3.2    8.2
N     2.1    1.8    7.2
H    -1.1    1.1    5.2
H    -1.2    1.7    3.6
H     1.3    0.9    3.3
H     1.2    0.4    5.0
H     0.9    3.2    3.9
H     2.3    2.6    4.8
H    -0.3    3.4    5.9
H     0.8    3.0    9.1
H     0.1    4.2    8.1
H     2.4    1.7    8.2
N    -3.1   -1.1    5.1
C    -4.5   -1.2    5.4
H    -2.4   -1.3    5.8
H    -4.8   -0.6    6.2
H    -4.7   -2.2    5.7
H    -5.1   -0.9    4.5
