          35
 sphere cut out from bulk 
C     1.1    0.8    0.5
C     0.0    0.8    1.5
O    -0.5    1.8    2.0
H     2.0    1.3    0.9
H     0.8    1.4   -0.4
H     1.4   -0.2    0.1
N    -0.5   -0.5    1.8
C    -1.4   -0.8    2.9
C    -1.3   -2.2    3.2
O    -0.3   -2.9    2.8
H     0.1   -1.3    1.5
H    -1.1   -0.2    3.8
C    -2.8   -0.3    2.5
C    -3.5   -1.0    1.3
C    -5.0   -1.2    1.5
N    -5.5   -2.5    2.0
C    -5.6   -2.7    3.4
N    -6.2   -4.0    3.6
N    -5.2   -1.9    4.3
H    -2.8    0.8    2.3
H    -3.5   -0.4    3.4
H    -3.0   -2.0    1.2
H    -3.2   -0.5    0.4
H    -5.5   -1.1    0.5
H    -5.4   -0.4    2.1
H    -5.5   -3.3    1.4
H    -6.4   -4.2    4.6
H    -7.0   -4.2    3.0
H    -5.5   -2.2    5.2
N    -2.2   -2.8    4.0
C    -2.3   -4.2    4.4
H    -3.1   -2.2    4.2
H    -2.3   -4.3    5.5
H    -1.4   -4.7    3.9
H    -3.2   -4.6    4.0
