          35
 sphere cut out from bulk 
C    -0.9    1.2    3.3
C    -0.5    0.5    2.0
O     0.4    0.9    1.3
H    -0.4    2.1    3.4
H    -0.7    0.5    4.2
H    -2.0    1.4    3.3
N    -1.2   -0.7    1.6
C    -2.2   -1.4    2.4
C    -1.7   -2.0    3.7
O    -2.4   -1.9    4.7
H    -0.9   -1.1    0.8
H    -3.0   -0.7    2.8
C    -2.9   -2.4    1.5
C    -3.9   -3.3    2.2
C    -5.1   -2.6    2.8
N    -6.1   -3.5    3.4
C    -5.9   -4.1    4.7
N    -6.9   -5.0    4.9
N    -5.0   -3.8    5.5
H    -2.2   -3.0    1.0
H    -3.4   -1.8    0.7
H    -3.4   -3.9    3.0
H    -4.3   -4.0    1.4
H    -5.7   -2.0    2.1
H    -4.8   -1.9    3.6
H    -6.6   -4.1    2.8
H    -6.8   -5.3    5.9
H    -7.9   -4.8    4.7
H    -4.3   -3.2    5.2
N    -0.5   -2.7    3.8
C     0.4   -3.0    2.7
H    -0.3   -3.1    4.7
H     1.1   -3.7    3.0
H     1.0   -2.1    2.4
H    -0.1   -3.4    1.8
