          35
 sphere cut out from bulk 
C    -1.2    0.4   -0.8
C    -0.9   -0.4    0.4
O    -0.3   -1.5    0.3
H    -0.7    1.4   -0.8
H    -2.3    0.7   -0.8
H    -1.0   -0.1   -1.7
N    -1.2    0.1    1.6
C    -1.8    1.4    2.0
C    -0.8    2.5    1.9
O    -1.2    3.7    1.9
H    -1.1   -0.6    2.4
H    -2.6    1.6    1.4
C    -2.2    1.3    3.5
C    -1.1    1.1    4.6
C    -0.1    0.0    4.5
N    -0.7   -1.3    4.2
C     0.1   -2.4    4.0
N     1.0   -2.3    2.9
N     0.1   -3.4    4.9
H    -2.9    0.4    3.6
H    -2.8    2.2    3.7
H    -1.6    1.1    5.6
H    -0.6    2.1    4.6
H     0.5   -0.0    5.4
H     0.6    0.2    3.6
H    -1.4   -1.5    5.0
H     0.5   -2.0    2.0
H     1.6   -3.1    2.8
H     0.6   -4.2    4.6
N     0.5    2.2    1.7
C     1.5    3.2    1.5
H     0.8    1.3    1.6
H     2.3    3.2    2.3
H     1.1    4.2    1.6
H     2.0    3.2    0.6
