          35
 sphere cut out from bulk 
C    -0.4    0.9    1.4
C    -1.2    1.3    2.6
O    -1.1    2.5    3.1
H     0.1    0.0    1.5
H     0.2    1.8    1.1
H    -1.1    0.8    0.5
N    -2.1    0.4    3.2
C    -2.7   -0.8    2.6
C    -1.7   -1.8    2.1
O    -0.9   -2.2    2.9
H    -2.6    0.8    4.0
H    -3.1   -1.3    3.4
C    -3.9   -0.3    1.7
C    -5.1    0.3    2.4
C    -4.9    1.6    3.1
N    -4.4    1.5    4.5
C    -4.2    2.6    5.3
N    -3.4    3.6    4.7
N    -4.7    2.8    6.5
H    -3.6    0.3    0.9
H    -4.3   -1.2    1.1
H    -5.9    0.4    1.6
H    -5.5   -0.5    3.1
H    -5.9    2.2    3.1
H    -4.2    2.3    2.5
H    -5.0    0.8    5.0
H    -2.6    3.2    4.1
H    -3.1    4.3    5.3
H    -5.3    2.1    6.7
N    -1.6   -2.3    0.8
C    -2.2   -1.9   -0.5
H    -0.9   -3.0    0.7
H    -2.2   -0.8   -0.6
H    -1.7   -2.3   -1.3
H    -3.3   -2.2   -0.6
