          35
 sphere cut out from bulk 
C    -0.7   -0.9    0.1
C    -0.6   -0.8    1.5
O     0.5   -0.8    2.1
H    -0.2   -0.1   -0.4
H    -0.1   -1.8   -0.2
H    -1.7   -1.0   -0.3
N    -1.7   -0.5    2.3
C    -3.1   -0.1    2.2
C    -4.1   -1.2    2.7
O    -5.0   -0.8    3.4
H    -1.4   -0.5    3.3
H    -3.3    0.7    2.9
C    -3.6    0.4    0.8
C    -3.0    1.6    0.2
C    -2.8    2.9    1.1
N    -1.9    2.7    2.2
C    -0.5    2.6    2.0
N     0.2    2.5    3.2
N    -0.1    2.6    0.8
H    -4.7    0.6    1.0
H    -3.6   -0.4    0.1
H    -3.5    1.9   -0.7
H    -1.9    1.4   -0.1
H    -3.8    3.1    1.5
H    -2.5    3.7    0.5
H    -2.2    3.2    3.1
H     1.1    2.1    3.1
H    -0.3    2.0    4.0
H     0.9    2.4    0.8
N    -4.0   -2.5    2.4
C    -3.0   -3.2    1.5
H    -4.7   -3.1    2.8
H    -2.0   -3.2    1.9
H    -3.4   -4.2    1.3
H    -3.0   -2.7    0.5
