          35
 sphere cut out from bulk 
C    -0.0    1.5   -0.7
C     0.1    1.1    0.8
O     0.7    0.1    1.1
H     1.0    1.6   -1.1
H    -0.6    2.4   -0.9
H    -0.6    0.7   -1.2
N    -0.6    1.9    1.6
C    -0.7    1.5    3.1
C    -1.9    2.2    3.7
O    -2.6    1.6    4.4
H    -1.2    2.6    1.3
H    -0.9    0.5    3.1
C     0.7    1.8    3.9
C     0.7    1.0    5.2
C     0.6    1.9    6.5
N    -0.7    2.7    6.5
C    -0.9    4.0    6.5
N     0.3    4.8    6.5
N    -2.0    4.7    6.6
H     0.8    2.8    4.0
H     1.4    1.4    3.2
H     1.6    0.5    5.3
H    -0.1    0.2    5.2
H     1.4    2.6    6.5
H     0.6    1.3    7.3
H    -1.5    2.2    6.3
H     1.1    4.5    5.9
H     0.1    5.8    6.5
H    -2.8    4.0    6.7
N    -2.1    3.5    3.5
C    -1.2    4.6    3.0
H    -2.9    3.9    4.1
H    -0.9    5.2    3.9
H    -1.7    5.2    2.3
H    -0.3    4.2    2.6
