          35
 sphere cut out from bulk 
C     0.4   -0.2    0.3
C     0.3    0.1    1.7
O     1.2    0.1    2.5
H    -0.5   -0.1   -0.3
H     0.8   -1.2    0.1
H     1.2    0.5   -0.2
N    -1.0    0.4    2.1
C    -1.5    0.6    3.5
C    -1.6    2.0    4.0
O    -2.5    2.2    4.9
H    -1.7    0.4    1.4
H    -2.6    0.3    3.4
C    -0.9   -0.4    4.6
C    -0.3    0.1    5.8
C     1.1    0.8    5.7
N     1.5    1.4    6.9
C     2.7    2.2    7.0
N     2.8    2.8    8.2
N     3.5    2.4    6.0
H    -0.1   -1.0    4.0
H    -1.7   -1.1    4.8
H    -0.1   -0.7    6.5
H    -1.0    0.8    6.3
H     1.0    1.6    4.9
H     1.8    0.1    5.3
H     0.8    1.8    7.5
H     3.8    3.2    8.3
H     2.6    2.2    9.0
H     3.2    1.9    5.2
N    -0.9    3.1    3.6
C     0.2    3.1    2.6
H    -1.2    3.9    4.0
H    -0.1    3.1    1.6
H     0.7    4.1    2.8
H     0.9    2.3    2.8
