          35
 sphere cut out from bulk 
C     1.8    0.5    0.5
C     1.1    1.0    1.7
O     1.7    1.8    2.5
H     2.7   -0.1    0.8
H     2.2    1.3   -0.1
H     1.1   -0.1   -0.2
N    -0.1    0.6    1.9
C    -1.1    0.8    3.1
C    -2.2    1.7    2.8
O    -3.4    1.3    2.9
H    -0.5   -0.0    1.2
H    -1.6   -0.2    3.2
C    -0.4    1.0    4.4
C    -1.3    0.9    5.6
C    -2.1    2.2    6.0
N    -3.0    2.1    7.1
C    -4.2    1.5    7.0
N    -4.8    1.3    8.3
N    -4.9    1.1    6.0
H     0.1    2.0    4.4
H     0.4    0.3    4.5
H    -0.7    0.6    6.5
H    -2.0    0.1    5.5
H    -2.7    2.5    5.1
H    -1.4    3.0    6.2
H    -2.5    1.9    8.0
H    -5.8    1.0    8.2
H    -4.7    2.1    8.9
H    -4.3    1.2    5.1
N    -2.0    3.0    2.3
C    -0.8    3.7    2.0
H    -2.9    3.5    2.1
H    -0.8    4.7    2.4
H    -0.5    3.7    1.0
H     0.1    3.2    2.6
