          35
 sphere cut out from bulk 
C    -0.1    0.1   -0.1
C     0.1    0.2    1.4
O     1.2    0.3    1.9
H     0.9    0.1   -0.6
H    -0.7    0.9   -0.5
H    -0.6   -0.8   -0.5
N    -1.0    0.1    2.1
C    -2.4    0.0    1.7
C    -3.3    0.7    2.8
O    -2.9    0.9    3.9
H    -0.9    0.3    3.1
H    -2.5    0.6    0.8
C    -2.9   -1.4    1.5
C    -2.9   -2.3    2.7
C    -3.2   -3.7    2.4
N    -3.3   -4.5    3.7
C    -3.5   -5.9    3.7
N    -2.9   -6.6    2.6
N    -4.3   -6.4    4.6
H    -2.2   -1.9    0.7
H    -3.9   -1.4    1.0
H    -3.6   -1.9    3.5
H    -1.9   -2.2    3.2
H    -2.5   -4.2    1.8
H    -4.2   -3.8    1.9
H    -3.8   -4.1    4.4
H    -3.0   -7.6    2.7
H    -2.0   -6.3    2.4
H    -4.3   -7.4    4.6
N    -4.5    1.1    2.4
C    -5.5    1.7    3.3
H    -4.8    0.9    1.4
H    -5.8    2.7    2.9
H    -5.0    1.8    4.3
H    -6.4    1.1    3.3
