          35
 sphere cut out from bulk 
C     0.3   -3.1   -0.4
C     0.0   -2.1    0.7
O     0.5   -1.0    0.8
H    -0.1   -4.1   -0.3
H     1.4   -3.1   -0.6
H    -0.2   -2.6   -1.3
N    -0.8   -2.6    1.7
C    -1.4   -1.8    2.8
C    -1.0   -2.3    4.2
O    -1.6   -2.0    5.2
H    -1.3   -3.5    1.5
H    -0.9   -0.8    2.6
C    -2.9   -1.6    2.7
C    -3.7   -2.9    2.8
C    -5.0   -2.7    3.7
N    -4.6   -2.5    5.0
C    -5.5   -2.1    6.0
N    -5.0   -1.7    7.2
N    -6.8   -2.0    5.8
H    -3.1   -1.1    1.7
H    -3.2   -0.9    3.5
H    -3.1   -3.7    3.3
H    -4.0   -3.3    1.8
H    -5.6   -3.6    3.6
H    -5.6   -1.9    3.2
H    -3.6   -2.2    5.2
H    -4.2   -2.2    7.5
H    -5.7   -1.6    7.9
H    -7.1   -2.2    4.9
N     0.2   -3.0    4.2
C     0.8   -3.5    5.5
H     0.7   -3.2    3.3
H     1.0   -4.6    5.4
H     0.1   -3.3    6.3
H     1.7   -3.0    5.7
