          35
 sphere cut out from bulk 
C    -1.4   -0.2   -0.1
C    -1.6   -0.4    1.3
O    -1.2   -1.4    1.9
H    -1.6    0.8   -0.6
H    -2.0   -1.0   -0.7
H    -0.3   -0.5   -0.3
N    -2.4    0.5    2.0
C    -2.8    1.9    1.7
C    -3.6    2.0    0.3
O    -3.5    3.0   -0.4
H    -2.5    0.3    3.0
H    -3.5    2.1    2.4
C    -1.7    2.9    1.9
C    -0.3    2.7    1.2
C    -0.2    3.2   -0.2
N    -0.3    4.7   -0.3
C    -0.8    5.4   -1.4
N    -1.8    4.8   -2.0
N    -0.2    6.5   -1.7
H    -1.5    3.0    3.0
H    -2.1    3.9    1.6
H    -0.0    1.7    1.2
H     0.5    3.2    1.8
H    -1.0    2.8   -0.9
H     0.8    2.9   -0.7
H     0.5    5.2    0.1
H    -2.3    5.4   -2.7
H    -2.5    4.3   -1.4
H    -0.7    7.0   -2.4
N    -4.4    0.9    0.1
C    -5.2    0.9   -1.1
H    -4.3    0.1    0.7
H    -6.3    0.6   -0.8
H    -4.9    0.1   -1.8
H    -5.2    1.9   -1.6
