          35
 sphere cut out from bulk 
C     0.2    2.7    1.8
C     0.2    1.8    2.9
O     0.7    2.1    4.0
H     0.6    3.7    2.1
H    -0.8    2.9    1.3
H     0.9    2.3    1.0
N    -0.3    0.5    2.8
C    -1.4   -0.0    1.9
C    -1.2    0.5    0.5
O    -2.1    1.1   -0.1
H    -0.3    0.1    3.7
H    -1.1   -1.1    1.9
C    -2.8    0.1    2.5
C    -3.2    1.5    2.9
C    -2.8    1.9    4.3
N    -3.2    1.0    5.4
C    -2.5   -0.0    5.9
N    -1.1    0.1    5.7
N    -3.0   -1.0    6.6
H    -2.9   -0.6    3.3
H    -3.5   -0.2    1.7
H    -4.3    1.5    2.9
H    -2.9    2.3    2.2
H    -3.3    2.9    4.6
H    -1.8    2.1    4.4
H    -4.2    0.9    5.5
H    -0.6   -0.6    6.3
H    -0.7    1.0    5.8
H    -4.0   -1.1    6.5
N    -0.1    0.1   -0.2
C     0.9   -0.8    0.2
H    -0.1    0.3   -1.2
H     1.2   -0.6    1.3
H     1.8   -0.7   -0.4
H     0.6   -1.9    0.1
