          35
 sphere cut out from bulk 
C     0.1    0.3    0.6
C     0.1   -0.1    2.1
O     1.1   -0.1    2.8
H    -0.6   -0.3   -0.0
H     1.1    0.2    0.2
H    -0.3    1.3    0.5
N    -1.1   -0.5    2.6
C    -2.5   -0.7    2.1
C    -2.5   -1.8    1.0
O    -2.6   -1.6   -0.2
H    -1.0   -0.8    3.6
H    -3.1   -1.1    2.9
C    -3.1    0.6    1.5
C    -3.1    1.8    2.5
C    -3.6    1.6    3.9
N    -4.9    1.0    4.0
C    -5.2   -0.4    4.2
N    -6.4   -0.8    3.8
N    -4.4   -1.2    4.9
H    -4.2    0.3    1.3
H    -2.7    0.8    0.6
H    -3.6    2.6    2.0
H    -2.0    2.1    2.6
H    -3.6    2.5    4.4
H    -2.9    0.9    4.5
H    -5.7    1.5    3.5
H    -6.6   -1.8    4.0
H    -6.7   -0.5    2.8
H    -3.7   -0.7    5.3
N    -2.4   -3.1    1.5
C    -2.2   -3.5    2.9
H    -2.4   -3.8    0.8
H    -2.5   -4.6    2.9
H    -2.9   -3.0    3.5
H    -1.2   -3.4    3.2
