          35
 sphere cut out from bulk 
C    -0.5    0.3    0.2
C    -0.8    1.0    1.6
O    -0.1    2.0    1.9
H     0.3    0.8   -0.3
H    -1.4    0.3   -0.4
H    -0.2   -0.8    0.4
N    -1.7    0.5    2.4
C    -2.4   -0.8    2.2
C    -3.8   -0.6    3.0
O    -3.8   -0.1    4.1
H    -1.8    0.9    3.3
H    -2.5   -1.0    1.2
C    -1.6   -2.0    2.9
C    -2.3   -3.4    2.7
C    -1.5   -4.5    3.3
N    -1.5   -4.4    4.8
C    -0.4   -4.5    5.6
N     0.8   -3.8    5.0
N    -0.4   -5.1    6.7
H    -1.6   -1.8    4.0
H    -0.6   -2.0    2.5
H    -2.4   -3.6    1.6
H    -3.3   -3.4    3.0
H    -0.5   -4.5    3.0
H    -1.9   -5.5    3.0
H    -2.2   -4.9    5.3
H     1.5   -3.7    5.6
H     0.6   -2.9    4.5
H     0.5   -4.9    7.2
N    -4.9   -1.0    2.3
C    -5.0   -1.5    0.9
H    -5.7   -0.8    2.8
H    -6.1   -1.7    0.8
H    -4.5   -2.5    0.8
H    -4.7   -0.8    0.2
