          35
 sphere cut out from bulk 
C    -3.0   -2.3    0.0
C    -2.0   -2.0    1.1
O    -0.8   -2.0    0.9
H    -2.9   -1.5   -0.7
H    -4.0   -2.4    0.4
H    -2.7   -3.2   -0.5
N    -2.5   -1.8    2.4
C    -1.7   -1.4    3.5
C    -0.9   -2.5    4.2
O    -1.0   -2.8    5.4
H    -3.5   -1.8    2.5
H    -0.9   -0.7    3.1
C    -2.5   -0.6    4.5
C    -3.7   -1.4    5.1
C    -5.0   -0.6    5.3
N    -5.4    0.3    4.2
C    -5.8   -0.2    2.9
N    -6.4    0.8    2.1
N    -5.5   -1.4    2.6
H    -2.9    0.3    4.0
H    -1.9   -0.2    5.3
H    -3.4   -1.8    6.0
H    -4.0   -2.2    4.4
H    -4.9    0.1    6.1
H    -5.8   -1.2    5.6
H    -5.3    1.3    4.2
H    -6.7    0.4    1.2
H    -7.1    1.4    2.6
H    -6.0   -1.7    1.7
N    -0.1   -3.2    3.4
C     0.7   -4.3    3.8
H    -0.1   -2.9    2.4
H     0.4   -5.3    3.3
H     0.5   -4.5    4.9
H     1.8   -4.2    3.6
