          35
 sphere cut out from bulk 
C    -0.0    1.2   -0.4
C     0.2    0.1    0.6
O     1.1   -0.8    0.5
H     0.9    1.2   -1.0
H    -0.2    2.2    0.1
H    -0.9    1.0   -1.0
N    -0.6    0.0    1.7
C    -1.7    0.9    2.2
C    -2.8    1.0    1.0
O    -3.2    0.1    0.5
H    -0.5   -0.8    2.3
H    -2.2    0.3    2.9
C    -1.2    2.2    2.8
C    -0.2    1.9    4.0
C     0.2    3.2    4.7
N    -1.0    3.9    5.4
C    -0.9    5.2    5.8
N    -2.0    5.6    6.5
N     0.0    6.1    5.6
H    -2.1    2.8    3.2
H    -0.7    2.8    2.1
H     0.7    1.4    3.6
H    -0.7    1.2    4.7
H     0.6    3.9    4.0
H     1.0    3.0    5.5
H    -1.5    3.3    6.0
H    -2.0    6.6    6.7
H    -2.9    5.3    6.1
H     0.9    5.6    5.2
N    -3.2    2.3    0.8
C    -4.2    2.6   -0.2
H    -2.8    3.1    1.3
H    -3.8    3.1   -1.1
H    -5.0    3.2    0.2
H    -4.6    1.6   -0.6
