          35
 sphere cut out from bulk 
C     0.2    0.5    1.5
C    -0.4    1.2    2.7
O     0.4    1.8    3.5
H     0.0   -0.6    1.5
H     1.3    0.6    1.5
H    -0.2    0.9    0.5
N    -1.7    1.1    2.9
C    -2.7    0.5    2.1
C    -4.0    1.3    2.3
O    -4.2    1.9    3.3
H    -2.1    1.7    3.7
H    -2.4    0.6    1.0
C    -2.9   -1.0    2.4
C    -3.3   -1.3    3.9
C    -3.3   -2.8    4.2
N    -3.7   -3.1    5.6
C    -2.8   -3.4    6.6
N    -1.4   -3.0    6.3
N    -3.0   -4.1    7.6
H    -2.0   -1.5    2.2
H    -3.7   -1.4    1.7
H    -4.3   -0.8    4.1
H    -2.6   -0.8    4.5
H    -2.4   -3.2    4.0
H    -4.1   -3.3    3.5
H    -4.6   -3.4    5.8
H    -0.9   -3.2    7.1
H    -1.3   -2.1    6.0
H    -4.0   -4.5    7.6
N    -5.0    1.2    1.3
C    -4.8    0.6   -0.1
H    -5.8    1.7    1.5
H    -5.8    0.8   -0.6
H    -4.6   -0.5   -0.0
H    -4.0    1.1   -0.6
