          35
 sphere cut out from bulk 
C    -0.1   -0.1    0.1
C     0.0    0.0    1.6
O     1.1    0.3    2.1
H     0.9    0.0   -0.4
H    -0.4   -1.2   -0.2
H    -0.8    0.6   -0.4
N    -1.1   -0.1    2.3
C    -2.5   -0.3    1.9
C    -2.7   -1.6    1.1
O    -2.4   -2.7    1.5
H    -1.0   -0.0    3.3
H    -3.0   -0.7    2.8
C    -3.2    1.0    1.5
C    -4.7    1.1    1.7
C    -5.2    1.0    3.2
N    -4.6    2.1    4.0
C    -3.4    1.9    4.8
N    -2.8    3.1    5.1
N    -2.9    0.8    5.1
H    -3.0    1.3    0.5
H    -2.7    1.8    2.2
H    -5.2    0.2    1.2
H    -5.1    2.0    1.3
H    -5.0    0.1    3.7
H    -6.3    1.1    3.2
H    -4.7    3.0    3.7
H    -2.0    2.9    5.8
H    -3.4    3.9    5.3
H    -3.4   -0.1    4.8
N    -3.3   -1.6   -0.2
C    -3.6   -0.5   -1.2
H    -3.4   -2.5   -0.6
H    -4.4    0.1   -0.8
H    -3.9   -1.0   -2.1
H    -2.7    0.1   -1.4
