          35
 sphere cut out from bulk 
C    -0.6   -1.2   -0.4
C    -0.5   -1.1    1.1
O     0.5   -1.6    1.7
H     0.3   -0.9   -0.9
H    -1.5   -0.7   -0.8
H    -0.8   -2.3   -0.6
N    -1.4   -0.4    1.8
C    -1.6   -0.3    3.2
C    -0.6    0.7    3.9
O    -1.0    1.6    4.5
H    -2.2   -0.0    1.2
H    -2.6    0.3    3.3
C    -1.8   -1.6    3.9
C    -2.0   -1.5    5.4
C    -2.2   -2.8    6.1
N    -1.0   -3.7    6.0
C    -1.0   -4.8    5.2
N     0.2   -5.5    5.4
N    -2.0   -5.1    4.5
H    -0.9   -2.2    3.8
H    -2.6   -2.2    3.5
H    -2.9   -0.9    5.6
H    -1.2   -0.9    5.9
H    -3.0   -3.4    5.7
H    -2.4   -2.7    7.2
H    -0.4   -3.7    6.8
H     0.4   -6.2    4.7
H     1.1   -4.9    5.5
H    -1.7   -5.9    3.9
N     0.7    0.3    3.7
C     1.8    1.1    4.3
H     0.9   -0.5    3.1
H     1.4    1.9    4.9
H     2.5    1.5    3.5
H     2.4    0.4    5.0
