          35
 sphere cut out from bulk 
C     0.1   -0.0    0.2
C    -0.5   -1.0    1.2
O     0.2   -1.9    1.6
H    -0.3   -0.3   -0.8
H     1.1   -0.1    0.1
H    -0.2    1.0    0.4
N    -1.8   -0.8    1.7
C    -2.8   -0.0    1.0
C    -3.5    1.1    1.8
O    -4.4    1.8    1.4
H    -2.1   -1.5    2.4
H    -2.4    0.5    0.1
C    -3.9   -1.0    0.5
C    -3.4   -2.0   -0.5
C    -3.5   -3.5   -0.1
N    -2.6   -3.9    1.1
C    -3.0   -3.7    2.4
N    -4.3   -3.8    2.7
N    -2.2   -3.4    3.4
H    -4.7   -0.4    0.1
H    -4.4   -1.5    1.4
H    -2.4   -1.8   -0.8
H    -4.0   -2.0   -1.4
H    -3.2   -4.2   -0.9
H    -4.5   -3.8    0.2
H    -1.6   -3.7    0.9
H    -4.5   -3.9    3.7
H    -4.8   -4.6    2.2
H    -1.2   -3.3    3.0
N    -2.9    1.4    3.0
C    -3.3    2.4    3.9
H    -2.1    0.8    3.3
H    -2.5    3.1    4.1
H    -3.6    2.0    4.9
H    -4.2    2.9    3.5
