          35
 sphere cut out from bulk 
C    -1.8    0.9   -1.6
C    -0.8    0.4   -0.6
O     0.4    0.4   -0.8
H    -1.3    1.1   -2.5
H    -2.4    1.8   -1.2
H    -2.6    0.1   -1.9
N    -1.3    0.0    0.7
C    -2.7   -0.2    1.0
C    -3.5    1.0    1.6
O    -4.7    1.0    1.8
H    -0.6   -0.4    1.3
H    -3.3   -0.4    0.1
C    -2.9   -1.4    2.0
C    -2.6   -2.8    1.3
C    -3.4   -3.0    0.0
N    -4.8   -2.6    0.0
C    -5.2   -1.6   -0.8
N    -6.2   -0.8   -0.3
N    -4.8   -1.4   -2.0
H    -3.9   -1.4    2.4
H    -2.2   -1.3    2.8
H    -2.9   -3.5    2.1
H    -1.6   -2.9    1.1
H    -3.3   -4.1   -0.2
H    -2.9   -2.5   -0.8
H    -5.3   -2.7    0.9
H    -6.6   -0.1   -0.9
H    -6.0   -0.4    0.6
H    -4.2   -2.1   -2.4
N    -2.7    2.1    1.9
C    -3.2    3.3    2.4
H    -1.7    2.0    1.6
H    -3.1    4.2    1.7
H    -2.7    3.6    3.3
H    -4.3    3.2    2.6
