          35
 sphere cut out from bulk 
C    -1.7    0.3   -0.1
C    -1.2   -0.1    1.3
O    -0.3   -1.0    1.5
H    -0.8    0.6   -0.7
H    -2.4    1.1   -0.1
H    -2.1   -0.6   -0.5
N    -1.7    0.6    2.4
C    -1.4    0.3    3.8
C    -2.6   -0.3    4.4
O    -3.6    0.3    4.6
H    -2.5    1.2    2.2
H    -0.5   -0.3    3.7
C    -1.0    1.6    4.5
C     0.2    2.4    4.0
C     0.6    3.6    4.8
N    -0.5    4.6    4.7
C    -0.3    6.0    5.0
N     1.1    6.3    5.2
N    -1.2    6.9    5.0
H    -0.9    1.3    5.6
H    -1.9    2.3    4.5
H     0.0    2.6    2.9
H     1.1    1.7    4.0
H     1.5    4.0    4.3
H     0.8    3.3    5.8
H    -1.4    4.3    4.8
H     1.1    7.3    5.5
H     1.6    5.7    5.8
H    -2.1    6.5    4.8
N    -2.5   -1.7    4.7
C    -1.4   -2.6    4.4
H    -3.3   -2.1    5.1
H    -0.9   -2.4    3.4
H    -1.8   -3.6    4.4
H    -0.6   -2.5    5.2
