          35
 sphere cut out from bulk 
C     0.9    0.8    1.8
C     0.1   -0.5    2.0
O     0.7   -1.6    2.2
H     1.7    0.6    1.0
H     1.4    1.1    2.7
H     0.3    1.6    1.4
N    -1.2   -0.4    1.9
C    -2.1   -1.5    2.3
C    -1.9   -2.8    1.4
O    -2.0   -3.9    1.9
H    -1.7    0.5    1.8
H    -1.9   -1.9    3.3
C    -3.6   -1.1    2.2
C    -4.6   -2.1    2.6
C    -4.7   -2.6    4.1
N    -3.5   -3.4    4.4
C    -3.2   -3.7    5.7
N    -2.1   -4.6    5.7
N    -3.8   -3.4    6.8
H    -3.8   -0.6    1.2
H    -3.6   -0.2    3.0
H    -4.6   -3.0    1.9
H    -5.6   -1.6    2.4
H    -5.6   -3.1    4.2
H    -4.7   -1.7    4.8
H    -3.0   -3.8    3.6
H    -1.7   -4.7    6.7
H    -1.3   -4.4    5.1
H    -4.7   -2.9    6.6
N    -1.7   -2.7    0.1
C    -1.5   -1.5   -0.8
H    -1.6   -3.6   -0.4
H    -0.5   -1.1   -0.7
H    -2.2   -0.7   -0.6
H    -1.7   -1.8   -1.8
