          35
 sphere cut out from bulk 
C     0.2    1.5    0.4
C    -0.0    0.8    1.8
O     1.0    0.6    2.5
H    -0.8    1.7   -0.1
H     0.8    0.8   -0.2
H     0.7    2.4    0.6
N    -1.3    0.5    2.1
C    -1.8   -0.2    3.3
C    -1.6    0.3    4.7
O    -2.4    0.1    5.6
H    -2.0    0.8    1.4
H    -2.9   -0.1    3.2
C    -1.6   -1.8    3.2
C    -0.2   -2.3    3.6
C    -0.2   -3.4    4.5
N    -0.8   -3.1    5.8
C    -0.1   -2.3    6.8
N    -1.1   -1.7    7.7
N     1.1   -2.0    6.9
H    -1.9   -2.1    2.2
H    -2.3   -2.2    3.9
H     0.4   -1.5    4.0
H     0.3   -2.6    2.6
H     0.8   -3.8    4.7
H    -0.8   -4.3    4.1
H    -1.8   -3.2    6.0
H    -0.6   -1.1    8.3
H    -1.8   -1.2    7.2
H     1.7   -2.6    6.2
N    -0.4    0.9    4.9
C     0.1    1.3    6.2
H     0.3    0.9    4.2
H     0.6    2.3    6.2
H     0.7    0.6    6.7
H    -0.8    1.5    6.9
