          35
 sphere cut out from bulk 
C    -0.1   -0.0    0.1
C    -0.0    0.6    1.4
O     1.0    1.1    1.9
H     1.0   -0.4   -0.1
H    -0.3    0.7   -0.7
H    -0.8   -0.9   -0.0
N    -1.2    0.7    2.1
C    -2.6    0.3    1.7
C    -2.8   -1.2    1.6
O    -3.7   -1.6    0.9
H    -1.1    1.2    3.0
H    -3.2    0.6    2.6
C    -3.1    1.1    0.5
C    -4.6    1.5    0.6
C    -4.9    2.6    1.7
N    -4.2    3.8    1.5
C    -4.6    4.8    0.6
N    -3.7    5.8    0.5
N    -5.6    4.6   -0.1
H    -3.0    0.5   -0.4
H    -2.5    2.0    0.4
H    -5.2    0.6    0.8
H    -4.9    1.9   -0.4
H    -4.7    2.2    2.7
H    -6.0    2.8    1.6
H    -3.2    3.8    1.7
H    -4.0    6.6   -0.1
H    -3.3    6.2    1.3
H    -5.9    5.4   -0.7
N    -2.0   -2.0    2.4
C    -2.1   -3.4    2.4
H    -1.2   -1.5    2.9
H    -2.2   -3.8    3.4
H    -1.2   -3.9    2.0
H    -2.9   -3.7    1.8
