          35
 sphere cut out from bulk 
C    -0.2   -0.3   -0.0
C    -0.3   -0.5    1.5
O     0.5   -1.1    2.1
H     0.8   -0.1   -0.3
H    -0.9    0.4   -0.4
H    -0.5   -1.3   -0.4
N    -1.3    0.3    2.1
C    -1.6    0.2    3.5
C    -2.7   -0.8    3.8
O    -3.8   -0.6    3.3
H    -2.0    0.7    1.5
H    -0.6   -0.1    4.0
C    -2.0    1.5    4.1
C    -2.2    1.5    5.6
C    -2.6    2.9    6.2
N    -2.8    2.9    7.6
C    -1.7    2.9    8.5
N    -2.1    2.8    9.8
N    -0.5    3.0    8.1
H    -2.9    1.9    3.6
H    -1.2    2.3    3.9
H    -1.3    1.2    6.1
H    -3.0    0.8    5.9
H    -3.5    3.2    5.7
H    -1.8    3.6    6.0
H    -3.6    2.4    8.0
H    -1.4    3.0   10.5
H    -3.0    3.3   10.1
H     0.1    3.1    8.9
N    -2.4   -2.0    4.4
C    -1.1   -2.4    5.0
H    -3.1   -2.6    4.6
H    -0.3   -2.2    4.2
H    -1.1   -3.5    5.2
H    -0.8   -1.8    5.9
