          35
 sphere cut out from bulk 
C    -0.4    0.3   -0.7
C    -0.2   -0.1    0.7
O     0.9   -0.4    1.1
H    -0.2    1.4   -0.9
H    -1.4    0.1   -1.1
H     0.3   -0.2   -1.3
N    -1.2   -0.0    1.6
C    -2.6    0.5    1.4
C    -3.5   -0.3    0.5
O    -4.5    0.2   -0.1
H    -0.9   -0.2    2.5
H    -3.0    0.4    2.4
C    -2.6    2.0    1.0
C    -1.7    2.9    1.8
C    -2.0    2.9    3.3
N    -1.1    3.8    4.0
C    -1.2    4.0    5.4
N    -0.3    4.9    5.9
N    -2.2    3.5    6.0
H    -3.6    2.4    1.1
H    -2.4    2.1   -0.1
H    -1.7    4.0    1.4
H    -0.6    2.6    1.7
H    -1.9    1.9    3.8
H    -3.0    3.3    3.5
H    -0.1    3.8    3.7
H    -0.1    4.7    6.9
H     0.6    5.1    5.4
H    -2.3    3.8    7.0
N    -3.2   -1.6    0.4
C    -3.9   -2.6   -0.4
H    -2.3   -1.9    0.8
H    -4.3   -3.4    0.2
H    -3.3   -3.0   -1.2
H    -4.8   -2.0   -0.9
