          35
 sphere cut out from bulk 
C    -0.5   -1.1    0.9
C    -0.8   -1.1    2.4
O     0.1   -1.4    3.2
H    -1.1   -1.8    0.4
H     0.6   -1.4    0.7
H    -0.7   -0.1    0.4
N    -2.0   -0.7    2.8
C    -3.2   -0.3    2.0
C    -3.7   -1.6    1.2
O    -3.9   -2.6    1.9
H    -2.2   -0.8    3.8
H    -4.0   -0.3    2.8
C    -3.1    1.1    1.3
C    -4.5    1.7    1.1
C    -4.8    2.8    2.1
N    -4.6    2.5    3.5
C    -5.2    1.4    4.2
N    -6.4    1.1    3.7
N    -4.7    0.8    5.2
H    -2.6    1.0    0.4
H    -2.5    1.7    2.0
H    -5.3    0.9    1.2
H    -4.6    2.2    0.1
H    -5.9    3.1    2.0
H    -4.2    3.7    1.9
H    -3.7    2.7    3.9
H    -6.9    0.4    4.3
H    -7.1    1.8    3.5
H    -3.7    1.1    5.3
N    -4.0   -1.6   -0.1
C    -3.6   -0.7   -1.2
H    -4.3   -2.5   -0.4
H    -2.6   -0.4   -1.3
H    -4.2    0.3   -1.1
H    -4.0   -1.1   -2.2
