          35
 sphere cut out from bulk 
C     0.5    0.7    0.2
C     0.2    0.7    1.7
O     1.1    1.0    2.5
H     1.4    0.1   -0.0
H     0.7    1.8   -0.1
H    -0.3    0.3   -0.4
N    -1.0    0.2    2.1
C    -1.4    0.2    3.5
C    -0.9   -1.0    4.2
O    -1.7   -1.9    4.7
H    -1.6   -0.1    1.4
H    -1.0    1.1    3.9
C    -3.0    0.3    3.5
C    -3.8   -0.7    2.7
C    -5.0   -1.2    3.4
N    -4.7   -1.9    4.7
C    -5.3   -1.6    5.9
N    -6.6   -1.2    5.8
N    -4.8   -1.7    7.1
H    -3.3    1.3    3.2
H    -3.2    0.3    4.6
H    -3.1   -1.6    2.5
H    -4.0   -0.4    1.7
H    -5.6   -1.9    2.8
H    -5.7   -0.3    3.6
H    -3.7   -2.1    4.8
H    -7.1   -1.1    6.7
H    -7.2   -1.7    5.1
H    -3.8   -1.9    7.0
N     0.4   -1.0    4.4
C     1.1   -2.1    5.1
H     0.9   -0.3    3.9
H     0.4   -2.8    5.5
H     1.8   -1.7    5.9
H     1.8   -2.6    4.4
