          35
 sphere cut out from bulk 
C    -0.2    0.2   -0.2
C    -0.2   -0.2    1.3
O     0.7   -1.0    1.7
H    -0.3   -0.6   -0.8
H     0.7    0.8   -0.4
H    -1.1    0.9   -0.4
N    -1.2    0.2    2.0
C    -1.6   -0.0    3.5
C    -1.1    1.1    4.4
O    -2.0    1.9    4.8
H    -1.9    0.9    1.6
H    -2.6    0.1    3.5
C    -1.2   -1.5    3.9
C    -1.8   -1.8    5.3
C    -1.0   -1.4    6.5
N    -1.6   -1.7    7.8
C    -0.8   -1.7    8.9
N    -1.6   -2.0   10.1
N     0.4   -1.4    8.9
H    -0.2   -1.7    3.9
H    -1.7   -2.1    3.2
H    -2.0   -2.9    5.4
H    -2.8   -1.3    5.4
H    -0.8   -0.3    6.5
H     0.0   -1.9    6.4
H    -2.5   -1.5    7.8
H    -1.2   -1.6   10.9
H    -2.6   -2.0   10.0
H     0.9   -1.5    9.8
N     0.2    1.4    4.6
C     1.4    0.7    4.3
H     0.3    2.2    5.2
H     1.7    0.1    5.2
H     2.2    1.3    4.1
H     1.2   -0.0    3.5
