          35
 sphere cut out from bulk 
C    -0.4   -1.0    2.5
C     0.1    0.3    3.1
O     1.0    0.3    4.0
H    -0.4   -0.9    1.4
H    -1.4   -1.2    2.8
H     0.3   -1.8    2.8
N    -0.5    1.5    2.8
C    -1.6    1.7    1.9
C    -1.5    3.1    1.2
O    -2.4    3.9    1.4
H    -0.1    2.3    3.3
H    -1.5    0.9    1.1
C    -3.0    1.4    2.5
C    -3.2    1.7    4.0
C    -3.3    3.2    4.5
N    -2.2    4.0    4.3
C    -1.0    3.8    5.0
N    -1.0    3.4    6.3
N     0.1    3.9    4.3
H    -3.2    0.4    2.4
H    -3.8    2.0    2.0
H    -2.3    1.3    4.6
H    -4.1    1.2    4.4
H    -3.7    3.2    5.5
H    -4.1    3.7    3.9
H    -2.0    4.4    3.4
H    -0.3    2.8    6.6
H    -1.9    3.2    6.7
H     1.0    3.8    4.9
N    -0.4    3.3    0.4
C     0.7    2.4    0.1
H    -0.4    4.2    0.1
H     1.2    2.8   -0.8
H     0.4    1.4   -0.0
H     1.4    2.4    1.0
