          35
 sphere cut out from bulk 
C    -0.2   -0.6   -0.4
C    -0.1    0.1    1.0
O     1.0    0.5    1.4
H    -0.6   -1.6   -0.3
H     0.7   -0.5   -0.9
H    -1.0    0.0   -1.0
N    -1.1    0.0    1.8
C    -2.5   -0.4    1.5
C    -3.4    0.9    1.4
O    -3.2    1.9    2.1
H    -1.0    0.6    2.7
H    -2.5   -0.9    0.6
C    -3.1   -1.2    2.6
C    -2.4   -2.5    2.9
C    -2.2   -3.5    1.8
N    -3.3   -3.7    0.9
C    -4.6   -4.1    1.3
N    -4.5   -5.0    2.4
N    -5.6   -3.6    0.8
H    -4.2   -1.5    2.3
H    -3.2   -0.7    3.5
H    -2.9   -3.1    3.7
H    -1.4   -2.3    3.4
H    -1.8   -4.5    2.1
H    -1.4   -3.1    1.1
H    -3.4   -3.0    0.1
H    -5.4   -5.4    2.6
H    -3.8   -5.7    2.4
H    -6.5   -4.0    1.1
N    -4.4    0.8    0.5
C    -4.8   -0.2   -0.4
H    -5.0    1.7    0.5
H    -5.6    0.1   -1.0
H    -5.1   -1.1    0.1
H    -4.0   -0.5   -1.1
