          35
 sphere cut out from bulk 
C    -0.7   -0.3    0.0
C    -0.7   -0.4    1.5
O     0.2   -1.0    2.1
H     0.3    0.1   -0.3
H    -1.5    0.4   -0.4
H    -0.8   -1.3   -0.4
N    -1.7    0.3    2.2
C    -1.7    0.3    3.6
C    -2.4   -0.9    4.2
O    -3.5   -0.9    4.7
H    -2.4    0.7    1.6
H    -0.7    0.4    4.0
C    -2.5    1.6    4.1
C    -1.8    2.9    3.7
C    -2.1    3.5    2.3
N    -3.5    3.7    2.0
C    -4.2    2.8    1.2
N    -5.5    3.3    1.0
N    -3.7    1.7    0.8
H    -2.5    1.5    5.2
H    -3.5    1.6    3.8
H    -0.7    2.9    3.9
H    -2.2    3.7    4.4
H    -1.7    2.8    1.6
H    -1.6    4.4    2.2
H    -3.9    4.6    2.2
H    -6.2    2.6    0.7
H    -6.0    3.8    1.8
H    -4.4    1.2    0.3
N    -1.6   -2.0    4.1
C    -2.0   -3.4    4.5
H    -0.7   -1.9    3.5
H    -2.9   -3.3    5.1
H    -1.2   -3.9    5.1
H    -2.2   -4.0    3.6
