          35
 sphere cut out from bulk 
C    -0.4    1.3    1.1
C    -0.1    0.4    2.3
O     1.0    0.5    3.0
H    -1.3    1.9    1.3
H    -0.5    0.8    0.2
H     0.5    2.0    1.0
N    -1.0   -0.5    2.6
C    -2.2   -0.9    1.9
C    -3.3   -1.3    2.8
O    -3.8   -2.4    2.8
H    -0.8   -1.2    3.4
H    -2.5    0.0    1.3
C    -2.0   -2.0    0.8
C    -0.5   -2.4    0.4
C     0.0   -3.6    1.1
N     0.2   -3.5    2.5
C    -0.8   -3.6    3.5
N    -1.7   -4.7    3.3
N    -0.8   -2.8    4.4
H    -2.5   -1.7   -0.1
H    -2.5   -2.9    1.1
H     0.2   -1.5    0.6
H    -0.5   -2.6   -0.7
H     1.0   -3.9    0.7
H    -0.6   -4.5    0.9
H     0.9   -2.8    2.8
H    -1.6   -5.2    2.5
H    -2.7   -4.4    3.4
H    -1.5   -3.0    5.1
N    -3.8   -0.3    3.7
C    -3.3    1.0    3.8
H    -4.5   -0.7    4.3
H    -4.1    1.6    4.4
H    -3.2    1.5    2.9
H    -2.3    1.1    4.4
