          35
 sphere cut out from bulk 
C    -0.4   -0.9    0.2
C    -0.4   -0.8    1.7
O     0.5   -1.2    2.4
H     0.7   -1.1   -0.1
H    -0.8   -0.0   -0.3
H    -1.0   -1.8   -0.1
N    -1.5   -0.1    2.3
C    -2.7    0.2    1.7
C    -3.5    1.1    2.7
O    -3.2    1.1    3.9
H    -1.4    0.0    3.3
H    -2.6    0.8    0.8
C    -3.6   -1.0    1.3
C    -3.3   -2.3    2.1
C    -3.5   -2.3    3.6
N    -3.0   -3.5    4.3
C    -2.0   -3.5    5.2
N    -1.0   -2.4    5.0
N    -1.8   -4.3    6.2
H    -3.5   -1.2    0.2
H    -4.7   -0.8    1.5
H    -2.2   -2.6    1.9
H    -3.9   -3.1    1.7
H    -4.6   -2.2    3.8
H    -3.0   -1.4    4.1
H    -3.7   -4.2    4.5
H    -0.3   -2.5    5.7
H    -0.7   -2.3    4.1
H    -2.6   -4.9    6.3
N    -4.5    1.9    2.1
C    -5.3    2.8    2.9
H    -4.6    1.9    1.1
H    -5.2    3.8    2.6
H    -5.0    2.7    4.0
H    -6.4    2.5    2.9
