          35
 sphere cut out from bulk 
C    -0.2    0.5    2.2
C    -0.3   -0.9    2.8
O     0.6   -1.7    2.7
H     0.8    0.5    1.7
H    -0.2    1.3    3.0
H    -0.9    0.8    1.5
N    -1.5   -1.3    3.4
C    -2.9   -0.7    3.5
C    -4.0   -1.5    2.8
O    -5.0   -1.8    3.4
H    -1.5   -2.2    3.7
H    -3.2   -0.9    4.6
C    -3.0    0.8    3.4
C    -4.4    1.4    3.9
C    -5.4    1.8    2.8
N    -6.0    0.7    2.1
C    -6.0    0.5    0.8
N    -5.4    1.5   -0.0
N    -6.4   -0.6    0.2
H    -3.0    1.1    2.3
H    -2.2    1.3    3.9
H    -4.2    2.3    4.5
H    -4.9    0.7    4.6
H    -4.9    2.5    2.1
H    -6.2    2.4    3.3
H    -6.2   -0.1    2.7
H    -5.7    2.4    0.2
H    -5.6    1.3   -1.0
H    -6.8   -1.3    0.9
N    -3.8   -1.8    1.4
C    -2.8   -1.3    0.5
H    -4.6   -2.2    1.0
H    -3.1   -1.7   -0.5
H    -1.8   -1.7    0.7
H    -2.8   -0.2    0.5
