          35
 sphere cut out from bulk 
C     0.0    0.7   -0.2
C    -0.2   -0.2    1.1
O     0.6   -1.1    1.3
H     1.1    1.1   -0.1
H    -0.7    1.6   -0.2
H    -0.1    0.1   -1.1
N    -1.2    0.2    1.8
C    -1.6   -0.7    3.0
C    -2.7   -1.6    2.5
O    -3.8   -1.2    2.1
H    -1.9    0.8    1.5
H    -0.7   -1.2    3.3
C    -2.1    0.2    4.2
C    -2.3   -0.6    5.5
C    -3.7   -1.2    5.6
N    -4.8   -0.3    5.6
C    -6.0   -0.6    5.1
N    -6.1   -1.4    4.0
N    -7.2   -0.1    5.6
H    -3.0    0.7    3.9
H    -1.3    1.0    4.3
H    -2.2    0.2    6.3
H    -1.5   -1.3    5.6
H    -3.6   -1.8    6.6
H    -3.8   -2.0    4.8
H    -4.8    0.3    6.5
H    -7.0   -1.5    3.6
H    -5.3   -1.3    3.3
H    -7.0    0.4    6.5
N    -2.4   -3.0    2.5
C    -1.1   -3.6    2.9
H    -3.2   -3.6    2.2
H    -1.0   -3.7    4.0
H    -0.3   -3.1    2.4
H    -1.1   -4.6    2.5
