          35
 sphere cut out from bulk 
C    -1.7   -2.8    0.9
C    -0.5   -2.0    1.4
O     0.6   -2.4    1.5
H    -1.3   -3.8    0.6
H    -2.2   -2.3    0.1
H    -2.5   -2.9    1.7
N    -0.8   -0.6    1.7
C    -2.0    0.1    1.8
C    -2.4    0.9    0.5
O    -3.5    1.5    0.5
H     0.1   -0.2    2.1
H    -2.8   -0.7    1.9
C    -2.1    1.0    3.0
C    -2.0    0.3    4.4
C    -2.9   -0.9    4.6
N    -4.3   -0.7    4.2
C    -4.9   -1.5    3.3
N    -4.6   -2.8    3.3
N    -5.8   -1.1    2.4
H    -3.1    1.5    2.9
H    -1.4    1.8    2.9
H    -2.2    1.1    5.1
H    -0.9   -0.0    4.5
H    -2.8   -1.2    5.7
H    -2.5   -1.8    4.0
H    -4.6    0.2    4.2
H    -4.5   -3.3    4.2
H    -5.2   -3.4    2.7
H    -5.8   -0.1    2.4
N    -1.5    0.8   -0.5
C    -1.7    1.4   -1.8
H    -0.7    0.2   -0.4
H    -0.9    2.1   -2.0
H    -2.7    2.0   -1.7
H    -1.8    0.7   -2.6
