          35
 sphere cut out from bulk 
C    -2.8    0.7    0.1
C    -2.1    0.1    1.2
O    -1.1   -0.6    1.1
H    -3.0   -0.1   -0.7
H    -2.2    1.5   -0.4
H    -3.8    1.2    0.3
N    -2.7    0.3    2.5
C    -2.1   -0.0    3.7
C    -2.9   -1.1    4.6
O    -2.6   -1.3    5.8
H    -3.5    1.0    2.5
H    -1.1   -0.5    3.4
C    -1.8    1.2    4.6
C    -3.0    2.0    5.0
C    -2.6    3.2    5.9
N    -3.7    4.1    6.3
C    -4.2    5.0    5.4
N    -5.4    5.6    5.9
N    -3.8    5.3    4.2
H    -1.1    1.8    4.0
H    -1.2    0.8    5.5
H    -3.7    1.4    5.6
H    -3.5    2.4    4.2
H    -1.8    3.8    5.4
H    -2.1    2.8    6.8
H    -4.4    3.7    6.9
H    -5.7    6.3    5.3
H    -5.4    5.8    6.9
H    -3.0    4.8    4.0
N    -3.8   -1.8    3.9
C    -4.5   -2.9    4.5
H    -3.9   -1.6    2.9
H    -4.2   -3.8    4.0
H    -5.6   -2.7    4.3
H    -4.3   -2.9    5.5
