          35
 sphere cut out from bulk 
C    -0.4    2.6   -1.1
C     0.0    1.9    0.1
O     1.2    1.8    0.5
H    -0.0    2.0   -2.0
H     0.0    3.6   -1.1
H    -1.5    2.7   -1.2
N    -1.0    1.3    0.9
C    -0.7    0.4    2.0
C    -2.0   -0.4    2.4
O    -2.1   -1.6    2.3
H    -1.9    1.2    0.4
H    -0.0   -0.4    1.7
C    -0.1    1.1    3.2
C     0.0    0.3    4.5
C     1.1   -0.8    4.5
N     0.7   -2.0    3.8
C     1.3   -2.5    2.7
N     0.5   -3.3    1.9
N     2.6   -2.3    2.4
H    -0.6    2.0    3.4
H     0.9    1.4    2.9
H    -1.0   -0.1    4.8
H     0.3    1.0    5.3
H     1.3   -1.1    5.6
H     2.0   -0.5    4.1
H    -0.3   -2.2    3.8
H     1.0   -3.6    1.0
H    -0.4   -3.0    1.7
H     3.1   -1.8    3.1
N    -3.1    0.3    2.7
C    -3.3    1.7    3.0
H    -3.9   -0.3    2.9
H    -3.1    1.9    4.1
H    -4.3    2.0    2.8
H    -2.6    2.4    2.4
