          35
 sphere cut out from bulk 
C    -2.2    0.2    3.6
C    -1.1    0.2    2.6
O    -1.1   -0.2    1.5
H    -2.5   -0.8    3.8
H    -3.0    0.8    3.1
H    -1.9    0.7    4.6
N     0.1    0.8    3.1
C     1.3    0.9    2.2
C     2.5    0.0    2.6
O     3.6    0.2    2.1
H     0.1    1.3    4.0
H     1.0    0.6    1.2
C     1.7    2.4    2.1
C     2.3    3.0    3.5
C     1.8    4.3    3.9
N     0.3    4.5    3.8
C    -0.6    3.7    4.5
N    -1.9    3.9    4.1
N    -0.3    2.8    5.4
H     0.9    3.0    1.8
H     2.5    2.5    1.4
H     3.4    3.0    3.4
H     2.1    2.3    4.3
H     2.2    5.1    3.1
H     2.1    4.6    4.8
H    -0.1    5.3    3.3
H    -2.5    3.2    4.6
H    -2.1    3.9    3.1
H     0.7    2.9    5.8
N     2.2   -1.0    3.5
C     3.2   -2.0    3.9
H     1.2   -1.0    3.8
H     3.3   -2.0    5.0
H     4.2   -1.7    3.5
H     2.9   -3.0    3.5
