          35
 sphere cut out from bulk 
C     0.7   -2.2    1.9
C     0.3   -0.7    2.2
O     1.1    0.2    1.9
H     1.7   -2.4    2.2
H     0.7   -2.3    0.8
H    -0.0   -2.9    2.3
N    -0.9   -0.5    2.6
C    -1.4    0.8    2.9
C    -2.3    0.8    4.2
O    -2.9   -0.3    4.5
H    -1.5   -1.3    2.9
H    -0.5    1.4    3.1
C    -2.2    1.5    1.8
C    -1.7    2.9    1.3
C    -0.6    2.8    0.3
N    -1.0    2.4   -1.0
C    -0.7    1.1   -1.5
N    -1.5    0.8   -2.7
N     0.0    0.2   -1.1
H    -3.3    1.6    2.1
H    -2.2    0.8    0.9
H    -1.4    3.5    2.2
H    -2.5    3.4    0.9
H     0.2    2.1    0.7
H    -0.1    3.8    0.2
H    -1.8    2.8   -1.3
H    -1.2   -0.0   -3.1
H    -1.5    1.6   -3.3
H     0.5    0.4   -0.2
N    -2.3    1.9    4.9
C    -3.2    2.0    6.1
H    -1.8    2.7    4.6
H    -3.9    2.9    6.0
H    -2.6    2.2    7.0
H    -3.7    1.1    6.2
