          35
 sphere cut out from bulk 
C     0.1    0.8    1.2
C    -0.1    0.9    2.7
O     0.8    1.3    3.5
H     1.1    1.0    1.0
H    -0.5    1.6    0.7
H    -0.2   -0.2    0.9
N    -1.3    0.6    3.3
C    -2.5   -0.1    2.8
C    -2.3   -1.6    2.5
O    -1.2   -2.0    2.1
H    -1.2    0.6    4.3
H    -3.2   -0.0    3.7
C    -3.2    0.6    1.6
C    -3.4    2.1    1.8
C    -4.3    2.5    3.0
N    -5.5    1.7    3.2
C    -6.6    1.6    2.4
N    -7.5    0.6    2.7
N    -6.8    2.4    1.3
H    -4.1    0.1    1.4
H    -2.6    0.4    0.7
H    -3.9    2.4    0.8
H    -2.5    2.6    1.9
H    -4.6    3.6    2.9
H    -3.7    2.5    3.9
H    -5.3    0.9    3.8
H    -8.3    0.7    2.1
H    -7.7    0.6    3.7
H    -6.0    3.0    1.1
N    -3.4   -2.4    2.7
C    -4.7   -2.1    3.3
H    -3.2   -3.4    2.5
H    -4.6   -1.7    4.3
H    -5.2   -1.4    2.7
H    -5.2   -3.0    3.3
