          35
 sphere cut out from bulk 
C    -0.4    0.4    1.0
C    -0.4    0.7    2.5
O     0.4    1.4    3.0
H     0.5    0.8    0.6
H    -1.2    0.8    0.5
H    -0.4   -0.7    0.8
N    -1.4    0.1    3.3
C    -2.4   -0.9    3.0
C    -1.8   -2.3    2.9
O    -0.7   -2.5    2.3
H    -1.3    0.4    4.3
H    -3.0   -0.9    4.0
C    -3.4   -0.7    1.9
C    -4.0    0.8    1.8
C    -4.7    1.2    3.1
N    -5.9    0.4    3.4
C    -6.0   -0.5    4.5
N    -5.2   -0.1    5.6
N    -6.7   -1.5    4.3
H    -4.2   -1.4    1.9
H    -2.9   -0.9    0.9
H    -4.7    0.8    0.9
H    -3.2    1.5    1.6
H    -5.1    2.3    2.9
H    -4.0    1.3    3.9
H    -6.5    0.1    2.6
H    -5.4   -0.7    6.4
H    -5.1    0.9    5.8
H    -6.8   -2.0    5.2
N    -2.5   -3.4    3.4
C    -3.8   -3.4    4.2
H    -2.1   -4.3    3.2
H    -4.6   -3.0    3.6
H    -3.7   -2.8    5.1
H    -4.0   -4.4    4.5
