          35
 sphere cut out from bulk 
C    -1.6   -1.7    0.7
C    -0.7   -1.3    1.8
O     0.2   -2.0    2.2
H    -1.2   -1.2   -0.2
H    -2.6   -1.6    0.8
H    -1.4   -2.8    0.5
N    -1.0   -0.1    2.5
C    -2.0    0.9    2.4
C    -3.4    0.3    2.9
O    -3.8   -0.8    2.8
H    -0.4    0.0    3.3
H    -1.7    1.7    3.0
C    -2.2    1.5    1.0
C    -1.1    2.4    0.5
C     0.1    1.6   -0.2
N     1.1    2.4   -0.8
C     0.9    3.0   -2.0
N     2.0    3.9   -2.3
N    -0.0    2.9   -2.9
H    -3.1    2.1    1.0
H    -2.5    0.7    0.2
H    -0.7    3.0    1.3
H    -1.5    3.1   -0.3
H    -0.3    0.9   -1.0
H     0.6    0.9    0.6
H     1.7    2.9   -0.1
H     1.9    4.2   -3.3
H     2.9    3.5   -2.1
H    -0.8    2.3   -2.5
N    -4.2    1.3    3.5
C    -3.9    2.6    3.9
H    -5.1    0.9    3.8
H    -3.7    3.3    3.0
H    -3.1    2.7    4.6
H    -4.8    3.1    4.3
