          35
 sphere cut out from bulk 
C    -0.8   -1.3   -1.2
C    -0.1   -1.0    0.1
O     0.9   -1.5    0.4
H    -0.5   -0.6   -1.9
H    -1.9   -1.4   -1.1
H    -0.4   -2.3   -1.5
N    -0.8   -0.1    1.0
C    -2.1    0.5    0.9
C    -3.2   -0.5    0.8
O    -4.0   -0.5   -0.1
H    -0.2    0.1    1.8
H    -2.2    1.0    1.9
C    -2.2    1.6   -0.1
C    -1.1    2.7   -0.0
C    -1.2    3.7   -1.1
N    -0.2    4.8   -1.1
C     1.1    4.5   -1.2
N     1.4    3.5   -2.2
N     2.0    5.0   -0.5
H    -3.2    2.0   -0.1
H    -2.2    1.1   -1.1
H    -0.1    2.2   -0.1
H    -1.2    3.2    1.0
H    -2.2    4.2   -1.1
H    -1.2    3.2   -2.1
H    -0.3    5.4   -0.3
H     2.4    3.4   -2.5
H     0.8    3.6   -3.0
H     3.0    4.8   -0.8
N    -3.3   -1.5    1.8
C    -2.5   -1.7    2.9
H    -4.1   -2.1    1.6
H    -3.1   -2.3    3.6
H    -2.3   -0.8    3.5
H    -1.6   -2.2    2.7
