          35
 sphere cut out from bulk 
C    -0.2   -1.6   -0.4
C     0.1   -0.9    0.9
O     1.3   -0.5    1.1
H    -1.3   -1.5   -0.7
H    -0.1   -2.7   -0.2
H     0.4   -1.3   -1.2
N    -0.9   -0.7    1.8
C    -2.3   -0.4    1.6
C    -3.1   -1.7    1.2
O    -4.1   -1.7    0.5
H    -0.5   -0.1    2.6
H    -2.7   -0.2    2.5
C    -2.6    0.7    0.6
C    -2.4    2.1    1.1
C    -1.1    2.5    1.8
N    -1.0    2.1    3.1
C     0.2    2.2    3.9
N     0.1    2.5    5.2
N     1.4    1.9    3.4
H    -3.6    0.6    0.2
H    -1.9    0.6   -0.3
H    -3.2    2.3    1.9
H    -2.6    2.9    0.3
H    -0.9    3.6    1.7
H    -0.2    2.1    1.2
H    -1.8    2.3    3.7
H     0.9    2.6    5.7
H    -0.6    3.3    5.4
H     1.4    1.5    2.5
N    -2.5   -2.9    1.7
C    -3.1   -4.2    1.5
H    -1.7   -2.8    2.2
H    -4.1   -4.0    0.9
H    -3.4   -4.7    2.5
H    -2.5   -4.8    0.9
