          35
 sphere cut out from bulk 
C    -0.2    0.5   -0.0
C    -0.2    0.4    1.5
O     0.9    0.6    2.1
H     0.7   -0.1   -0.4
H    -0.1    1.5   -0.3
H    -1.1    0.0   -0.5
N    -1.4    0.1    2.1
C    -1.6    0.2    3.5
C    -1.0    1.6    4.0
O    -1.5    2.6    3.6
H    -2.2    0.1    1.5
H    -2.6    0.4    3.6
C    -1.3   -1.1    4.3
C    -0.1   -2.0    3.8
C     0.2   -3.1    4.8
N     1.3   -4.0    4.4
C     2.6   -3.9    4.7
N     3.0   -2.6    5.1
N     3.5   -4.8    4.8
H    -2.2   -1.7    4.2
H    -1.2   -0.9    5.3
H     0.8   -1.4    3.6
H    -0.3   -2.4    2.8
H    -0.7   -3.7    5.0
H     0.5   -2.7    5.8
H     1.0   -5.0    4.2
H     4.0   -2.5    5.2
H     2.7   -1.9    4.4
H     3.0   -5.8    4.7
N    -0.0    1.6    5.0
C     1.1    0.8    5.3
H     0.1    2.6    5.2
H     0.8   -0.1    5.9
H     1.7    1.3    6.0
H     1.6    0.5    4.4
