          35
 sphere cut out from bulk 
C     0.3   -0.9    1.4
C     0.1    0.6    1.6
O     1.1    1.3    1.8
H     1.4   -1.2    1.5
H    -0.1   -1.3    0.4
H    -0.3   -1.5    2.2
N    -1.1    1.1    1.3
C    -2.4    0.4    1.2
C    -3.3    1.0    0.1
O    -4.5    0.8    0.2
H    -1.2    2.1    1.5
H    -2.2   -0.6    0.9
C    -3.1    0.3    2.6
C    -3.2    1.5    3.5
C    -4.0    2.7    3.0
N    -3.3    3.4    2.0
C    -4.0    4.2    1.0
N    -5.2    3.7    0.6
N    -3.4    5.3    0.7
H    -2.6   -0.5    3.2
H    -4.1   -0.1    2.4
H    -2.1    1.8    3.8
H    -3.6    1.2    4.5
H    -4.2    3.4    3.9
H    -5.0    2.3    2.6
H    -2.5    4.0    2.3
H    -5.6    4.2   -0.2
H    -5.2    2.7    0.5
H    -4.0    5.8   -0.1
N    -2.6    1.6   -0.9
C    -3.3    2.2   -2.0
H    -1.6    1.7   -0.7
H    -4.3    1.9   -2.0
H    -2.8    1.9   -2.9
H    -3.3    3.3   -1.9
