          35
 sphere cut out from bulk 
C    -1.0   -0.8    0.1
C    -0.2   -0.6    1.4
O     0.7   -1.2    1.7
H    -0.5   -1.6   -0.5
H    -0.9    0.1   -0.6
H    -2.0   -1.1    0.2
N    -0.7    0.5    2.2
C    -1.9    1.3    2.2
C    -3.1    0.5    2.6
O    -3.2   -0.7    2.4
H    -0.1    0.4    3.1
H    -1.6    2.0    3.1
C    -2.0    2.2    1.0
C    -3.2    1.9    0.0
C    -3.1    2.6   -1.3
N    -2.0    2.2   -2.1
C    -2.1    1.1   -3.0
N    -0.9    0.9   -3.7
N    -3.0    0.3   -3.1
H    -1.1    2.2    0.4
H    -2.1    3.2    1.3
H    -4.2    2.2    0.5
H    -3.3    0.8   -0.2
H    -3.0    3.7   -1.1
H    -4.1    2.5   -1.9
H    -1.4    2.9   -2.5
H    -0.9    0.0   -4.2
H    -0.0    1.0   -3.2
H    -3.9    0.6   -2.6
N    -4.1    1.2    3.2
C    -4.2    2.6    3.5
H    -5.0    0.7    3.4
H    -4.4    3.3    2.6
H    -3.2    3.0    4.0
H    -5.0    2.8    4.2
