          35
 sphere cut out from bulk 
C     1.6   -0.8    0.4
C     1.1   -0.3    1.8
O     1.9    0.0    2.7
H     2.1   -1.8    0.6
H     2.4   -0.1    0.1
H     0.8   -0.9   -0.3
N    -0.2   -0.3    1.9
C    -0.9   -0.0    3.2
C    -0.3    1.1    4.0
O    -0.0    0.9    5.2
H    -0.8   -0.7    1.2
H    -1.9    0.4    2.9
C    -1.2   -1.3    4.0
C     0.0   -2.1    4.4
C    -0.3   -3.3    5.4
N     0.8   -4.0    5.7
C     0.9   -5.3    6.3
N    -0.4   -5.8    6.5
N     1.9   -6.0    6.7
H    -1.9   -1.9    3.5
H    -1.7   -0.9    5.0
H     0.8   -1.5    4.9
H     0.5   -2.5    3.5
H    -1.1   -3.9    4.9
H    -0.8   -2.8    6.3
H     1.7   -3.5    5.7
H    -0.3   -6.7    7.1
H    -1.1   -5.2    6.8
H     2.8   -5.5    6.3
N    -0.1    2.3    3.5
C    -0.3    2.7    2.1
H     0.4    3.0    4.1
H    -0.4    3.8    2.0
H    -1.2    2.3    1.6
H     0.6    2.4    1.4
