          35
 sphere cut out from bulk 
C    -0.5   -1.2   -0.2
C    -0.5   -0.3    1.1
O     0.4    0.6    1.1
H     0.4   -1.7   -0.3
H    -0.7   -0.6   -1.1
H    -1.3   -1.9   -0.1
N    -1.4   -0.6    2.0
C    -1.6    0.0    3.3
C    -2.9    0.9    3.4
O    -3.8    0.6    4.2
H    -2.1   -1.3    1.8
H    -1.9   -0.8    4.0
C    -0.4    0.7    4.0
C    -0.6    1.1    5.5
C    -1.1    2.5    5.7
N    -0.1    3.5    5.4
C    -0.4    4.6    4.7
N     0.7    5.4    4.5
N    -1.6    4.9    4.3
H    -0.0    1.5    3.4
H     0.4   -0.1    3.9
H     0.3    0.9    6.0
H    -1.3    0.4    5.9
H    -1.4    2.6    6.8
H    -2.0    2.7    5.1
H     0.8    3.2    5.4
H     0.5    6.4    4.1
H     1.4    5.5    5.3
H    -1.6    5.8    3.9
N    -3.0    2.0    2.6
C    -2.1    2.7    1.7
H    -3.9    2.5    2.8
H    -1.2    2.1    1.6
H    -1.8    3.6    2.2
H    -2.5    2.8    0.7
