          35
 sphere cut out from bulk 
C     0.6    0.1    0.5
C     0.2    0.6    1.9
O     1.1    1.3    2.5
H     1.1    0.8   -0.1
H    -0.3   -0.3   -0.1
H     1.3   -0.7    0.7
N    -1.1    0.4    2.3
C    -1.6    0.6    3.6
C    -0.9    1.8    4.3
O    -0.3    1.7    5.5
H    -1.6   -0.2    1.7
H    -2.6    1.0    3.5
C    -1.7   -0.7    4.5
C    -0.5   -1.7    4.5
C     0.7   -1.3    5.3
N     1.9   -0.8    4.5
C     2.5   -1.6    3.6
N     2.5   -3.0    3.8
N     3.2   -1.2    2.5
H    -2.6   -1.2    4.1
H    -1.9   -0.3    5.5
H    -0.2   -1.9    3.5
H    -0.9   -2.6    4.9
H     1.1   -2.2    5.9
H     0.5   -0.5    6.0
H     1.8    0.1    4.2
H     3.2   -3.5    3.3
H     2.5   -3.3    4.8
H     3.1   -0.2    2.5
N    -1.0    3.0    3.7
C    -0.2    4.2    4.2
H    -1.2    3.0    2.8
H    -0.7    5.1    3.8
H     0.8    4.1    3.9
H    -0.3    4.2    5.3
