          35
 sphere cut out from bulk 
C    -3.2    2.3   -0.0
C    -2.0    1.9    0.9
O    -1.1    2.7    1.2
H    -3.2    1.7   -0.9
H    -3.1    3.3   -0.3
H    -4.1    2.1    0.5
N    -1.9    0.6    1.3
C    -2.8   -0.5    1.0
C    -2.9   -1.4    2.2
O    -2.5   -2.6    2.2
H    -1.1    0.4    1.8
H    -3.8   -0.1    0.7
C    -2.3   -1.3   -0.3
C    -0.9   -1.7   -0.3
C    -0.5   -2.5   -1.6
N    -0.6   -1.6   -2.7
C    -0.5   -2.0   -4.1
N    -0.8   -3.4   -4.3
N    -0.2   -1.1   -5.0
H    -2.5   -0.7   -1.2
H    -3.0   -2.2   -0.4
H    -0.2   -0.9   -0.2
H    -0.7   -2.4    0.6
H    -1.2   -3.3   -1.7
H     0.5   -2.9   -1.5
H    -0.2   -0.7   -2.6
H    -0.6   -3.7   -5.2
H    -0.6   -4.0   -3.6
H    -0.3   -1.5   -5.9
N    -3.5   -0.8    3.3
C    -4.1    0.5    3.5
H    -3.6   -1.5    4.1
H    -4.7    0.8    2.6
H    -3.3    1.2    3.6
H    -4.7    0.5    4.3
