          35
 sphere cut out from bulk 
C    -0.7    1.2   -0.6
C    -0.6    0.1    0.4
O     0.4   -0.6    0.5
H     0.2    1.2   -1.3
H    -0.7    2.2   -0.1
H    -1.6    1.1   -1.2
N    -1.6   -0.1    1.3
C    -2.8    0.7    1.5
C    -2.5    2.1    2.0
O    -3.1    3.1    1.6
H    -1.4   -0.9    1.9
H    -3.2    1.0    0.5
C    -3.8   -0.0    2.3
C    -4.4   -1.2    1.6
C    -5.5   -2.0    2.5
N    -6.1   -3.1    1.8
C    -7.1   -2.9    0.9
N    -7.5   -4.1    0.3
N    -7.6   -1.7    0.7
H    -4.6    0.7    2.5
H    -3.4   -0.3    3.3
H    -3.6   -1.9    1.3
H    -5.0   -0.9    0.7
H    -6.2   -1.3    2.8
H    -5.0   -2.3    3.4
H    -5.5   -3.9    1.6
H    -8.4   -4.0   -0.2
H    -7.5   -4.9    0.9
H    -8.4   -1.8    0.1
N    -1.6    2.3    3.0
C    -0.8    1.3    3.8
H    -1.5    3.2    3.3
H    -1.4    0.5    4.1
H    -0.4    1.8    4.7
H     0.1    0.9    3.2
