          35
 sphere cut out from bulk 
C    -1.9   -0.8   -0.2
C    -1.5   -0.2    1.1
O    -0.3    0.1    1.3
H    -1.4   -1.8   -0.4
H    -1.6   -0.1   -1.0
H    -3.0   -1.1   -0.3
N    -2.4   -0.2    2.0
C    -2.2    0.4    3.4
C    -2.6   -0.5    4.5
O    -2.7   -0.1    5.7
H    -3.4   -0.5    1.8
H    -1.1    0.4    3.4
C    -2.6    1.9    3.6
C    -4.2    2.1    3.7
C    -4.9    2.6    2.5
N    -5.0    1.6    1.4
C    -5.8    0.4    1.6
N    -7.0    0.6    2.2
N    -5.2   -0.7    1.3
H    -2.2    2.5    2.8
H    -2.1    2.2    4.5
H    -4.3    2.9    4.5
H    -4.7    1.2    4.2
H    -4.4    3.4    2.0
H    -5.9    2.9    2.8
H    -4.2    1.4    1.0
H    -7.6   -0.2    2.3
H    -7.5    1.4    2.0
H    -5.9   -1.5    1.4
N    -2.8   -1.8    4.2
C    -3.1   -2.8    5.2
H    -2.6   -2.1    3.2
H    -2.3   -3.6    5.3
H    -4.0   -3.4    4.9
H    -3.3   -2.3    6.1
