          35
 sphere cut out from bulk 
C     0.3    0.2    0.3
C     0.1   -0.1    1.8
O     1.1   -0.2    2.5
H     0.9    1.1    0.2
H    -0.7    0.4   -0.3
H     0.8   -0.6   -0.2
N    -1.2   -0.1    2.2
C    -1.5   -0.3    3.6
C    -1.5   -1.9    3.9
O    -2.6   -2.5    4.0
H    -2.0   -0.0    1.5
H    -0.7    0.1    4.2
C    -2.9    0.3    3.9
C    -3.3    0.3    5.4
C    -2.3    1.0    6.4
N    -2.9    1.0    7.7
C    -2.2    1.7    8.7
N    -2.8    1.4   10.0
N    -1.3    2.5    8.4
H    -3.7   -0.2    3.3
H    -2.8    1.4    3.6
H    -3.4   -0.8    5.7
H    -4.3    0.7    5.5
H    -2.2    2.0    6.1
H    -1.3    0.6    6.3
H    -3.2    0.0    8.0
H    -2.5    2.1   10.7
H    -3.8    1.3   10.0
H    -1.0    3.1    9.2
N    -0.3   -2.4    4.1
C    -0.0   -3.8    4.2
H     0.5   -1.7    3.8
H     0.7   -3.9    5.0
H     0.3   -4.2    3.3
H    -0.9   -4.3    4.5
