          35
 sphere cut out from bulk 
C     0.2   -0.3    0.4
C     0.0    0.6    1.7
O     0.8    1.5    1.9
H     1.1    0.1   -0.1
H    -0.7   -0.2   -0.2
H     0.4   -1.3    0.7
N    -1.0    0.3    2.5
C    -2.0   -0.7    2.4
C    -3.3   -0.2    3.1
O    -3.2    0.6    4.0
H    -1.2    0.9    3.3
H    -2.3   -0.9    1.3
C    -1.6   -2.1    2.9
C    -1.3   -2.1    4.4
C    -0.8   -3.5    4.9
N    -0.5   -3.4    6.3
C     0.0   -4.5    7.0
N     0.2   -4.3    8.4
N     0.3   -5.7    6.5
H    -0.7   -2.4    2.4
H    -2.4   -2.8    2.7
H    -2.1   -1.8    5.0
H    -0.5   -1.3    4.6
H     0.1   -3.8    4.4
H    -1.6   -4.2    4.7
H    -1.1   -2.8    6.9
H     0.6   -5.1    8.8
H     0.6   -3.4    8.6
H     0.1   -5.7    5.5
N    -4.5   -0.8    2.7
C    -5.7   -0.5    3.3
H    -4.4   -1.5    1.9
H    -6.5   -0.1    2.6
H    -5.6    0.2    4.1
H    -6.2   -1.4    3.8
