          35
 sphere cut out from bulk 
C    -0.2    0.9    0.4
C    -0.1    0.6    1.9
O     0.9    0.7    2.5
H     0.0    2.0    0.2
H    -1.2    0.8   -0.0
H     0.5    0.3   -0.1
N    -1.3    0.2    2.5
C    -1.4   -0.1    3.9
C    -0.9   -1.5    4.3
O    -1.6   -2.4    4.8
H    -2.1    0.0    1.9
H    -0.7    0.6    4.4
C    -2.9    0.1    4.4
C    -3.9   -0.6    3.6
C    -5.3   -0.5    4.3
N    -6.4   -1.2    3.6
C    -6.8   -0.7    2.3
N    -6.8    0.7    2.1
N    -7.2   -1.5    1.4
H    -3.0    1.2    4.3
H    -2.9   -0.2    5.4
H    -3.7   -1.7    3.5
H    -4.0   -0.2    2.6
H    -5.6    0.6    4.4
H    -5.3   -0.9    5.3
H    -6.4   -2.2    3.6
H    -7.3    0.9    1.3
H    -7.1    1.2    2.9
H    -7.1   -2.5    1.6
N     0.4   -1.7    4.0
C     1.1   -2.9    4.3
H     0.9   -0.9    3.6
H     2.0   -2.8    5.0
H     1.5   -3.4    3.3
H     0.4   -3.6    4.7
