          35
 sphere cut out from bulk 
C    -0.4   -0.7   -1.2
C    -1.1   -0.3    0.1
O    -1.7    0.8    0.2
H     0.1   -1.6   -1.2
H     0.3    0.1   -1.5
H    -1.2   -0.8   -2.0
N    -0.9   -1.2    1.1
C    -1.3   -0.9    2.5
C    -0.2   -1.5    3.4
O     0.6   -2.4    3.0
H    -0.3   -2.0    1.0
H    -1.3    0.2    2.6
C    -2.7   -1.5    2.9
C    -3.9   -0.8    2.3
C    -4.2    0.6    2.9
N    -3.2    1.6    2.7
C    -2.4    2.0    3.6
N    -1.5    3.1    3.2
N    -2.3    1.5    4.8
H    -2.8   -1.6    3.9
H    -2.7   -2.6    2.5
H    -4.8   -1.4    2.4
H    -3.8   -0.7    1.2
H    -4.3    0.5    4.0
H    -5.2    0.9    2.6
H    -2.9    1.7    1.7
H    -0.9    3.5    3.9
H    -1.9    3.7    2.5
H    -1.7    2.0    5.5
N    -0.3   -0.9    4.7
C     0.6   -1.3    5.7
H    -1.0   -0.2    4.8
H     0.0   -1.7    6.6
H     1.2   -0.5    6.1
H     1.2   -2.1    5.4
