          35
 sphere cut out from bulk 
C     0.3    0.0    0.4
C    -0.1   -0.2    1.8
O     0.3    0.4    2.8
H     1.4    0.1    0.4
H    -0.0    1.0    0.1
H     0.0   -0.7   -0.3
N    -1.1   -1.1    2.0
C    -1.9   -1.2    3.2
C    -1.1   -2.0    4.3
O    -1.5   -1.9    5.5
H    -1.6   -1.5    1.2
H    -2.0   -0.2    3.7
C    -3.3   -1.9    3.0
C    -4.4   -0.8    3.0
C    -5.0   -0.5    4.4
N    -4.0   -0.1    5.4
C    -3.4    1.1    5.3
N    -2.2    1.2    6.1
N    -3.8    2.2    4.7
H    -3.5   -2.6    3.8
H    -3.2   -2.4    2.1
H    -5.2   -1.2    2.4
H    -4.1    0.1    2.5
H    -5.5   -1.4    4.8
H    -5.8    0.2    4.3
H    -3.5   -0.8    5.8
H    -1.7    2.0    5.8
H    -1.7    0.3    6.1
H    -4.7    2.0    4.2
N    -0.1   -2.8    4.0
C     0.8   -3.5    4.9
H     0.2   -2.7    3.0
H     0.9   -4.6    4.5
H     0.3   -3.5    5.8
H     1.7   -3.0    5.0
