          35
 sphere cut out from bulk 
C    -0.2   -2.5    2.2
C    -0.5   -1.5    3.2
O    -0.0   -1.6    4.3
H     0.9   -2.6    2.0
H    -0.7   -2.3    1.2
H    -0.6   -3.5    2.5
N    -1.3   -0.5    2.8
C    -1.8    0.5    3.7
C    -3.3    0.8    3.3
O    -3.7    0.5    2.2
H    -1.8   -0.5    1.9
H    -1.8    0.1    4.7
C    -1.1    1.9    3.7
C     0.3    1.8    4.5
C     0.1    1.6    6.0
N    -0.5    2.8    6.7
C    -1.8    2.9    7.2
N    -1.9    4.0    7.9
N    -2.7    2.0    6.8
H    -1.7    2.6    4.1
H    -0.9    2.1    2.7
H     0.9    2.7    4.3
H     0.9    0.9    4.1
H     1.1    1.4    6.5
H    -0.5    0.7    6.2
H     0.1    3.6    6.7
H    -2.9    4.1    8.3
H    -1.2    4.2    8.6
H    -3.5    2.1    7.4
N    -4.0    1.3    4.3
C    -5.4    1.7    4.1
H    -3.6    1.5    5.2
H    -5.5    2.8    4.2
H    -6.1    1.2    4.8
H    -5.7    1.4    3.1
