          35
 sphere cut out from bulk 
C     0.8   -0.4    0.8
C     0.2    0.6    1.8
O     0.9    1.3    2.5
H     1.5   -1.1    1.3
H     1.4    0.1    0.0
H     0.1   -1.0    0.2
N    -1.1    0.6    1.9
C    -1.9    1.5    2.8
C    -1.9    1.1    4.2
O    -1.9    2.0    5.1
H    -1.7   -0.1    1.3
H    -1.4    2.4    2.7
C    -3.3    1.6    2.2
C    -4.2    2.6    3.0
C    -5.3    2.1    3.9
N    -4.8    1.4    5.1
C    -5.2    0.2    5.6
N    -6.5   -0.2    5.2
N    -4.4   -0.5    6.3
H    -3.8    0.6    2.3
H    -3.3    1.9    1.2
H    -4.7    3.3    2.2
H    -3.6    3.3    3.6
H    -5.9    1.4    3.3
H    -6.0    2.9    4.2
H    -3.9    1.7    5.4
H    -7.2    0.6    5.2
H    -6.8   -1.0    5.7
H    -4.8   -1.2    6.8
N    -2.0   -0.2    4.7
C    -2.2   -1.4    3.9
H    -2.4   -0.3    5.6
H    -2.5   -2.2    4.5
H    -1.2   -1.7    3.4
H    -3.0   -1.3    3.1
