          35
 sphere cut out from bulk 
C    -2.2   -0.9   -1.0
C    -1.8   -0.8    0.5
O    -0.6   -0.8    0.8
H    -2.1   -1.9   -1.4
H    -1.6   -0.2   -1.6
H    -3.3   -0.6   -1.2
N    -2.8   -0.9    1.4
C    -4.2   -0.6    1.4
C    -5.0   -1.5    0.4
O    -6.0   -1.0   -0.2
H    -2.4   -0.8    2.4
H    -4.6   -0.9    2.4
C    -4.6    0.9    1.4
C    -4.0    1.7    0.2
C    -4.4    3.2    0.3
N    -3.8    4.1   -0.7
C    -4.3    4.2   -1.9
N    -3.5    4.9   -2.8
N    -5.4    3.6   -2.2
H    -4.3    1.4    2.3
H    -5.7    1.0    1.3
H    -4.4    1.4   -0.8
H    -2.9    1.6    0.2
H    -4.1    3.6    1.3
H    -5.5    3.3    0.2
H    -2.8    4.2   -0.6
H    -4.0    5.2   -3.7
H    -3.1    5.8   -2.4
H    -5.8    3.9   -3.2
N    -4.6   -2.7    0.3
C    -5.2   -3.7   -0.6
H    -3.7   -3.0    0.8
H    -5.4   -4.7   -0.1
H    -4.5   -3.9   -1.5
H    -6.1   -3.3   -1.0
