          35
 sphere cut out from bulk 
C    -0.3    0.0   -0.5
C     0.2    0.1    0.9
O     1.4    0.2    1.2
H     0.3    0.8   -1.1
H    -1.4    0.2   -0.6
H    -0.1   -0.9   -0.9
N    -0.7   -0.1    2.0
C    -2.2    0.0    1.9
C    -2.9   -1.0    1.0
O    -4.0   -0.8    0.5
H    -0.3    0.0    2.9
H    -2.5   -0.2    2.9
C    -2.7    1.5    1.6
C    -2.0    2.5    2.6
C    -2.7    2.7    4.0
N    -3.0    1.5    4.7
C    -2.0    0.7    5.3
N    -2.6   -0.3    6.1
N    -0.8    0.8    5.0
H    -3.8    1.5    1.7
H    -2.5    1.7    0.6
H    -2.1    3.5    2.1
H    -1.0    2.3    2.7
H    -3.6    3.2    3.9
H    -2.0    3.3    4.5
H    -3.9    1.1    4.7
H    -3.3    0.0    6.8
H    -1.9   -0.9    6.6
H    -0.2    0.2    5.6
N    -2.3   -2.2    0.9
C    -2.8   -3.3    0.2
H    -1.4   -2.3    1.4
H    -2.9   -4.2    0.8
H    -2.1   -3.6   -0.7
H    -3.8   -3.0   -0.2
