          35
 sphere cut out from bulk 
C    -0.8    0.7   -1.7
C    -0.6    1.5   -0.4
O     0.0    2.6   -0.3
H    -1.6    0.1   -1.7
H    -0.8    1.5   -2.5
H     0.1    0.1   -1.9
N    -1.0    0.9    0.8
C    -1.9   -0.2    1.2
C    -1.6   -1.4    0.3
O    -2.5   -2.0   -0.3
H    -0.8    1.6    1.6
H    -1.5   -0.5    2.2
C    -3.4    0.1    1.3
C    -4.1    0.7    0.1
C    -4.8    2.0    0.3
N    -3.9    3.1    0.7
C    -3.1    3.7   -0.3
N    -2.4    4.7    0.2
N    -3.2    3.3   -1.5
H    -3.4    0.9    2.1
H    -3.9   -0.8    1.7
H    -4.8   -0.1   -0.3
H    -3.4    0.8   -0.8
H    -5.5    1.9    1.1
H    -5.4    2.2   -0.6
H    -4.2    3.7    1.4
H    -1.6    5.0   -0.4
H    -2.0    4.5    1.2
H    -2.5    3.8   -2.1
N    -0.3   -1.9    0.3
C     0.9   -1.5    0.9
H    -0.2   -2.8   -0.3
H     1.4   -0.6    0.4
H     1.6   -2.3    1.0
H     0.6   -1.1    2.0
