          35
 sphere cut out from bulk 
C    -0.1    0.7    1.1
C    -0.4   -0.2    2.3
O     0.5   -0.8    2.9
H     1.0    0.6    0.9
H    -0.4    1.7    1.3
H    -0.6    0.3    0.2
N    -1.7   -0.3    2.8
C    -2.9    0.4    2.2
C    -3.2   -0.1    0.8
O    -3.4   -1.4    0.7
H    -1.8   -0.9    3.5
H    -3.7   -0.1    2.8
C    -3.0    1.9    2.6
C    -2.9    2.2    4.0
C    -2.8    3.7    4.3
N    -1.6    4.4    3.7
C    -1.5    4.7    2.4
N    -2.7    5.2    1.9
N    -0.5    4.7    1.6
H    -4.0    2.3    2.2
H    -2.2    2.4    2.0
H    -2.0    1.7    4.5
H    -3.7    1.8    4.6
H    -2.7    3.9    5.4
H    -3.7    4.2    3.9
H    -0.7    4.0    4.0
H    -2.5    5.7    0.9
H    -3.2    5.8    2.5
H     0.3    4.2    2.1
N    -3.4    0.7   -0.3
C    -3.1    2.1   -0.5
H    -3.6    0.2   -1.1
H    -3.8    2.8    0.0
H    -3.2    2.3   -1.6
H    -2.1    2.4   -0.1
