          35
 sphere cut out from bulk 
C     0.2    1.3    0.0
C     0.5    0.6    1.3
O     1.6    0.2    1.6
H     1.1    1.3   -0.6
H    -0.1    2.4    0.2
H    -0.6    0.9   -0.6
N    -0.7    0.3    2.1
C    -2.0    0.5    1.7
C    -2.5    1.9    1.5
O    -3.3    2.2    0.6
H    -0.4   -0.3    2.9
H    -2.2    0.0    0.7
C    -3.0   -0.2    2.7
C    -2.7   -1.6    3.1
C    -2.7   -2.7    2.0
N    -1.7   -2.5    1.0
C    -0.4   -2.7    1.3
N     0.4   -2.6    0.1
N     0.0   -2.9    2.5
H    -4.0   -0.1    2.3
H    -3.0    0.4    3.6
H    -3.5   -1.9    3.9
H    -1.8   -1.7    3.7
H    -3.7   -2.7    1.5
H    -2.6   -3.7    2.5
H    -2.0   -2.8    0.1
H     1.4   -2.4    0.3
H     0.1   -2.0   -0.6
H     1.0   -2.9    2.5
N    -2.1    2.9    2.3
C    -1.2    2.9    3.5
H    -2.5    3.8    2.1
H    -1.5    2.0    4.2
H    -1.4    3.8    4.1
H    -0.2    2.8    3.3
