          35
 sphere cut out from bulk 
C     0.5   -0.5    0.3
C    -0.1   -1.1    1.6
O     0.2   -2.2    2.0
H     0.8   -1.3   -0.3
H     1.4    0.1    0.6
H    -0.2    0.2   -0.2
N    -0.9   -0.2    2.3
C    -1.3   -0.5    3.7
C    -2.6   -1.3    3.7
O    -3.7   -0.9    4.2
H    -1.1    0.7    1.9
H    -0.5   -1.1    4.1
C    -1.5    0.8    4.5
C    -0.1    1.5    4.9
C     0.8    1.9    3.8
N     2.0    2.5    4.3
C     3.1    2.6    3.4
N     4.1    3.4    4.0
N     3.1    2.1    2.3
H    -2.1    0.7    5.3
H    -2.0    1.6    3.9
H     0.4    0.8    5.6
H    -0.4    2.4    5.5
H     0.3    2.5    3.0
H     1.2    1.0    3.2
H     1.9    3.3    4.9
H     5.0    3.4    3.5
H     4.3    3.3    5.0
H     4.0    2.2    1.8
N    -2.5   -2.6    3.3
C    -3.5   -3.5    3.1
H    -1.5   -2.8    2.9
H    -3.3   -4.5    3.6
H    -3.8   -3.7    2.1
H    -4.4   -3.1    3.6
