          35
 sphere cut out from bulk 
C     2.2   -0.0    2.4
C     1.0    0.8    2.9
O     1.1    1.8    3.7
H     2.6   -0.5    3.3
H     2.9    0.7    2.0
H     1.9   -0.8    1.7
N    -0.2    0.3    2.5
C    -1.5    0.9    2.9
C    -1.6    2.5    2.7
O    -2.0    3.2    3.6
H    -0.2   -0.5    1.9
H    -2.3    0.5    2.3
C    -1.9    0.6    4.4
C    -1.8   -0.9    4.7
C    -0.5   -1.4    5.4
N    -0.3   -0.7    6.7
C     1.0   -0.4    7.2
N     1.9    0.1    6.2
N     1.4   -0.4    8.4
H    -2.9    1.0    4.5
H    -1.2    1.2    5.1
H    -2.0   -1.5    3.9
H    -2.6   -1.1    5.4
H     0.4   -1.1    4.7
H    -0.5   -2.5    5.5
H    -0.9   -1.1    7.4
H     2.7    0.5    6.6
H     1.5    0.8    5.5
H     0.7   -0.9    8.9
N    -1.2    2.9    1.4
C    -0.8    2.2    0.3
H    -1.3    3.9    1.4
H    -1.1    2.9   -0.6
H    -1.4    1.3    0.1
H     0.2    2.0    0.2
