          35
 sphere cut out from bulk 
C    -0.6    0.1   -0.5
C    -0.3    0.1    1.0
O     0.9   -0.0    1.4
H    -0.2   -0.8   -0.9
H    -0.1    0.9   -0.9
H    -1.7    0.2   -0.7
N    -1.4    0.1    1.8
C    -1.2   -0.0    3.3
C    -2.4   -0.8    3.9
O    -2.3   -2.0    4.3
H    -2.3    0.1    1.4
H    -0.3   -0.7    3.5
C    -1.1    1.3    4.0
C    -1.0    1.3    5.5
C     0.2    0.5    6.0
N     0.3    0.5    7.5
C     0.9    1.6    8.2
N     1.0    1.3    9.5
N     1.3    2.6    7.5
H    -1.9    2.0    3.7
H    -0.1    1.8    3.6
H    -1.9    0.8    5.9
H    -0.9    2.3    5.9
H     1.1    0.9    5.6
H     0.1   -0.6    5.7
H     0.4   -0.4    7.9
H     1.3    2.1   10.1
H     0.2    0.8    9.9
H     1.6    3.3    8.1
N    -3.6   -0.2    3.7
C    -4.8   -0.8    4.3
H    -3.6    0.8    3.5
H    -5.7   -0.5    3.7
H    -5.0   -0.5    5.3
H    -4.8   -1.9    4.2
