          35
 sphere cut out from bulk 
C     0.5   -0.6    0.9
C    -0.5   -0.5    2.1
O    -0.9   -1.6    2.6
H     1.4   -1.0    1.2
H     0.7    0.4    0.5
H     0.1   -1.2    0.1
N    -0.9    0.7    2.5
C    -1.8    0.9    3.7
C    -3.2    0.4    3.6
O    -3.8    0.1    4.7
H    -0.6    1.5    2.0
H    -1.3    0.3    4.5
C    -1.7    2.4    4.1
C    -0.8    2.7    5.2
C    -1.1    1.9    6.5
N    -2.5    1.9    6.9
C    -3.2    3.0    7.3
N    -4.6    2.8    7.4
N    -2.6    4.0    7.7
H    -2.8    2.7    4.4
H    -1.5    3.0    3.2
H    -0.8    3.8    5.5
H     0.2    2.5    5.0
H    -0.6    2.4    7.4
H    -0.8    0.9    6.5
H    -3.1    1.2    6.3
H    -4.9    1.8    7.5
H    -5.1    3.4    8.0
H    -3.2    4.7    8.1
N    -3.9    0.3    2.5
C    -3.5    0.7    1.1
H    -4.9   -0.0    2.6
H    -4.5    0.8    0.5
H    -2.9   -0.1    0.6
H    -3.0    1.7    1.0
