          35
 sphere cut out from bulk 
C    -1.0    1.7    1.4
C    -0.5    0.7    2.4
O     0.6    0.8    2.9
H    -1.2    1.2    0.4
H    -0.3    2.5    1.2
H    -2.0    2.1    1.7
N    -1.3   -0.3    2.7
C    -2.6   -0.7    2.2
C    -3.5   -1.3    3.2
O    -4.6   -0.7    3.6
H    -0.9   -1.0    3.4
H    -3.1    0.2    1.9
C    -2.5   -1.6    0.9
C    -3.9   -2.0    0.3
C    -4.7   -0.8   -0.2
N    -4.0    0.3   -0.9
C    -3.4    0.1   -2.1
N    -2.6    1.2   -2.4
N    -3.5   -0.9   -2.9
H    -2.0   -2.5    1.2
H    -1.9   -1.1    0.2
H    -4.5   -2.6    1.0
H    -3.6   -2.6   -0.6
H    -5.2   -0.3    0.7
H    -5.5   -1.2   -0.8
H    -3.6    1.0   -0.3
H    -2.3    1.1   -3.4
H    -3.0    2.1   -2.2
H    -4.0   -1.6   -2.5
N    -3.1   -2.4    3.8
C    -3.9   -3.1    4.8
H    -2.3   -2.9    3.4
H    -3.2   -3.4    5.7
H    -4.4   -4.0    4.5
H    -4.7   -2.4    5.2
