          35
 sphere cut out from bulk 
C    -0.3    0.5   -0.2
C    -0.0    0.3    1.3
O     1.1    0.2    1.7
H     0.7    0.8   -0.7
H    -1.0    1.3   -0.4
H    -0.7   -0.4   -0.7
N    -1.1    0.1    2.1
C    -2.5    0.2    1.9
C    -2.9   -0.8    0.8
O    -2.6   -2.0    0.9
H    -0.8   -0.1    3.1
H    -3.0   -0.2    2.8
C    -3.0    1.7    1.7
C    -4.5    1.9    1.9
C    -5.0    3.3    1.6
N    -4.5    3.9    0.4
C    -4.5    3.2   -0.8
N    -3.5    3.7   -1.7
N    -5.2    2.2   -1.2
H    -2.7    2.1    0.8
H    -2.5    2.3    2.5
H    -4.8    1.7    3.0
H    -5.1    1.1    1.4
H    -4.8    4.0    2.4
H    -6.1    3.2    1.5
H    -3.7    4.4    0.6
H    -3.7    3.4   -2.7
H    -3.4    4.7   -1.7
H    -5.8    1.9   -0.4
N    -3.6   -0.3   -0.3
C    -4.0   -1.2   -1.4
H    -3.8    0.6   -0.5
H    -3.1   -1.6   -1.9
H    -4.7   -0.7   -2.1
H    -4.5   -2.1   -1.0
