          35
 sphere cut out from bulk 
C    -3.1    1.8    0.3
C    -2.1    1.4    1.4
O    -0.9    1.7    1.3
H    -4.2    1.4    0.5
H    -2.8    1.4   -0.6
H    -3.1    2.9    0.2
N    -2.6    0.7    2.5
C    -1.8    0.1    3.5
C    -2.4   -1.2    3.9
O    -3.6   -1.5    3.6
H    -3.6    0.3    2.5
H    -0.8    0.1    3.1
C    -1.9    1.0    4.8
C    -1.3    2.4    4.6
C     0.2    2.5    4.4
N     0.7    3.8    4.1
C     1.6    4.1    3.1
N     1.5    3.2    2.0
N     2.4    5.1    3.2
H    -1.3    0.5    5.6
H    -2.9    1.1    5.2
H    -1.6    3.0    5.5
H    -1.8    2.9    3.8
H     0.5    1.8    3.6
H     0.7    2.1    5.3
H     0.9    4.4    4.9
H     2.0    3.5    1.2
H     0.6    2.8    1.8
H     2.9    5.3    2.4
N    -1.5   -2.1    4.4
C    -1.9   -3.5    4.8
H    -0.5   -1.8    4.5
H    -1.7   -3.6    5.9
H    -1.3   -4.2    4.3
H    -2.9   -3.6    4.6
