          35
 sphere cut out from bulk 
C     0.6   -0.7    1.2
C     0.1   -1.4    2.5
O     0.8   -2.1    3.2
H     1.7   -1.0    1.2
H     0.5    0.4    1.3
H     0.1   -1.1    0.3
N    -1.3   -1.4    2.7
C    -2.3   -0.6    2.0
C    -2.9    0.4    3.0
O    -3.2    0.1    4.1
H    -1.6   -1.7    3.6
H    -1.8   -0.0    1.2
C    -3.4   -1.4    1.4
C    -3.0   -2.4    0.3
C    -2.6   -3.8    0.9
N    -2.2   -4.8   -0.2
C    -0.9   -4.7   -0.8
N    -0.9   -5.5   -1.9
N     0.1   -4.1   -0.4
H    -4.1   -0.7    0.9
H    -4.0   -1.9    2.2
H    -2.1   -2.0   -0.3
H    -3.8   -2.6   -0.4
H    -3.4   -4.2    1.4
H    -1.8   -3.7    1.6
H    -2.9   -5.0   -0.8
H     0.1   -5.6   -2.3
H    -1.4   -6.4   -1.9
H    -0.1   -3.5    0.5
N    -3.0    1.7    2.5
C    -3.6    2.8    3.3
H    -2.7    1.9    1.6
H    -2.9    3.6    3.5
H    -3.9    2.3    4.3
H    -4.5    3.2    2.8
