          35
 sphere cut out from bulk 
C    -0.9   -3.3    2.9
C    -0.7   -1.8    2.9
O     0.2   -1.2    2.2
H    -1.9   -3.5    2.5
H    -1.0   -3.6    4.0
H    -0.1   -3.8    2.4
N    -1.6   -1.0    3.7
C    -1.6    0.4    3.6
C    -0.6    1.0    4.7
O    -1.0    1.5    5.8
H    -2.2   -1.6    4.3
H    -1.2    0.7    2.7
C    -3.0    0.9    3.9
C    -4.0    0.5    2.8
C    -5.3   -0.1    3.3
N    -5.2   -1.2    4.2
C    -4.6   -2.4    3.8
N    -4.0   -3.1    4.8
N    -4.6   -2.9    2.6
H    -3.0    2.0    3.9
H    -3.4    0.7    4.8
H    -3.5   -0.3    2.1
H    -4.2    1.3    2.1
H    -6.0   -0.4    2.5
H    -5.9    0.7    3.9
H    -4.9   -0.9    5.2
H    -4.5   -3.1    5.7
H    -3.8   -4.1    4.6
H    -5.0   -2.3    1.9
N     0.7    0.8    4.3
C     1.8    1.2    5.2
H     0.8    0.3    3.5
H     2.5    1.8    4.7
H     2.3    0.3    5.6
H     1.4    1.8    6.0
