          35
 sphere cut out from bulk 
C     0.8   -2.2    0.8
C     0.2   -1.8    2.1
O     0.2   -2.6    3.1
H     0.6   -1.5    0.0
H     0.4   -3.2    0.5
H     1.9   -2.4    0.9
N    -0.3   -0.5    2.2
C    -0.9   -0.1    3.4
C    -2.4   -0.1    3.2
O    -3.0    0.6    2.3
H    -0.4   -0.1    1.3
H    -0.6   -0.8    4.1
C    -0.4    1.3    4.0
C    -1.0    2.6    3.6
C    -0.6    3.2    2.2
N    -1.1    2.4    1.1
C    -0.3    2.1    0.1
N     0.6    3.1   -0.3
N    -0.4    0.9   -0.5
H     0.7    1.3    3.8
H    -0.5    1.2    5.0
H    -0.7    3.4    4.4
H    -2.1    2.6    3.7
H     0.5    3.3    2.2
H    -1.0    4.3    2.2
H    -1.8    1.8    1.4
H     1.1    2.8   -1.2
H     0.3    4.0   -0.3
H     0.1    0.8   -1.3
N    -3.1   -0.9    4.0
C    -2.7   -1.9    4.9
H    -4.2   -0.9    3.8
H    -3.5   -2.6    5.1
H    -2.4   -1.5    5.9
H    -1.8   -2.5    4.5
