          35
 sphere cut out from bulk 
C    -0.0   -1.2   -0.2
C     0.0   -0.4    1.1
O     1.1   -0.0    1.6
H     0.4   -0.6   -1.0
H    -1.0   -1.5   -0.5
H     0.6   -2.1   -0.1
N    -1.2   -0.2    1.7
C    -1.4    0.3    3.0
C    -2.4   -0.5    3.8
O    -3.2   -1.2    3.1
H    -2.0   -0.7    1.4
H    -0.4    0.3    3.5
C    -1.9    1.8    3.0
C    -0.9    2.8    3.6
C     0.4    3.0    2.8
N     1.6    3.4    3.6
C     2.2    2.5    4.5
N     1.9    1.1    4.3
N     2.9    2.8    5.6
H    -2.8    1.9    3.5
H    -2.0    2.1    1.9
H    -0.6    2.5    4.6
H    -1.4    3.8    3.8
H     0.3    3.8    2.1
H     0.7    2.1    2.2
H     1.6    4.3    4.0
H     2.5    0.5    4.8
H     1.8    0.8    3.3
H     2.9    3.8    5.7
N    -2.3   -0.6    5.1
C    -1.4    0.1    6.0
H    -3.1   -1.1    5.5
H    -0.5    0.3    5.5
H    -1.3   -0.5    6.9
H    -1.8    1.1    6.3
