          35
 sphere cut out from bulk 
C     0.1   -1.5    0.6
C    -0.2   -0.6    1.8
O     0.4   -0.5    2.8
H     0.1   -2.5    1.0
H     1.2   -1.3    0.4
H    -0.5   -1.4   -0.3
N    -1.4    0.2    1.6
C    -2.0    1.0    2.6
C    -1.0    1.9    3.4
O    -0.9    1.9    4.6
H    -1.9    0.0    0.8
H    -2.6    1.7    2.1
C    -2.9    0.2    3.6
C    -4.2    0.9    4.0
C    -4.0    2.2    4.8
N    -5.3    2.6    5.3
C    -5.5    3.9    6.0
N    -4.3    4.4    6.6
N    -6.6    4.5    5.9
H    -2.3   -0.1    4.5
H    -3.2   -0.7    3.1
H    -4.8    0.2    4.7
H    -4.8    1.1    3.2
H    -3.5    3.0    4.2
H    -3.3    2.0    5.7
H    -6.1    2.4    4.8
H    -4.5    5.1    7.2
H    -3.6    3.7    6.9
H    -6.7    5.3    6.4
N    -0.2    2.7    2.6
C    -0.1    2.9    1.2
H     0.5    3.2    3.2
H     0.3    3.8    1.0
H    -1.1    2.8    0.7
H     0.6    2.1    0.8
