          35
 sphere cut out from bulk 
C    -0.3    0.1    0.2
C     0.0   -0.0    1.7
O     1.2    0.0    2.1
H    -0.4    1.2   -0.1
H    -1.2   -0.4   -0.1
H     0.6   -0.3   -0.4
N    -1.0   -0.2    2.5
C    -2.5   -0.1    2.3
C    -3.1   -1.2    1.5
O    -4.1   -1.1    0.8
H    -0.7   -0.1    3.5
H    -2.9   -0.2    3.3
C    -3.0    1.3    1.8
C    -2.5    2.5    2.6
C    -3.0    3.8    2.2
N    -4.5    4.1    2.4
C    -5.5    3.4    1.7
N    -5.3    3.4    0.3
N    -6.5    3.1    2.3
H    -4.1    1.2    1.8
H    -2.7    1.4    0.8
H    -1.4    2.5    2.6
H    -2.7    2.3    3.7
H    -2.8    4.0    1.1
H    -2.5    4.7    2.7
H    -4.7    4.1    3.4
H    -5.8    2.6   -0.1
H    -4.4    3.5   -0.1
H    -7.3    2.8    1.7
N    -2.4   -2.4    1.6
C    -2.8   -3.6    0.9
H    -1.5   -2.4    2.1
H    -2.9   -4.4    1.6
H    -2.1   -3.9    0.1
H    -3.8   -3.4    0.4
