          35
 sphere cut out from bulk 
C    -0.2    0.3   -0.4
C    -0.2    0.5    1.1
O     0.7    1.1    1.7
H     0.1   -0.7   -0.7
H     0.5    1.1   -0.8
H    -1.2    0.5   -0.9
N    -1.3   -0.1    1.8
C    -2.5   -0.7    1.3
C    -2.2   -1.8    0.3
O    -2.7   -1.9   -0.8
H    -1.2    0.1    2.8
H    -2.9   -1.2    2.2
C    -3.6    0.3    0.7
C    -3.9    1.4    1.7
C    -5.0    1.1    2.8
N    -4.8   -0.1    3.6
C    -3.7   -0.3    4.3
N    -3.6   -1.6    4.8
N    -2.7    0.5    4.7
H    -4.5   -0.3    0.5
H    -3.2    0.7   -0.2
H    -4.3    2.3    1.1
H    -3.0    1.8    2.1
H    -6.0    1.1    2.3
H    -5.0    2.0    3.5
H    -5.2   -0.9    3.2
H    -4.5   -2.1    5.0
H    -2.9   -1.7    5.5
H    -2.9    1.4    4.3
N    -1.4   -2.9    0.7
C    -0.8   -3.0    2.0
H    -1.3   -3.6    0.0
H    -1.5   -2.8    2.8
H     0.1   -2.4    2.2
H    -0.6   -4.1    2.1
