          35
 sphere cut out from bulk 
C    -0.4   -2.2   -0.6
C    -0.1   -1.8    0.8
O     0.9   -2.2    1.4
H    -1.4   -2.7   -0.7
H     0.3   -3.0   -0.9
H    -0.4   -1.4   -1.3
N    -1.0   -1.0    1.4
C    -2.4   -0.5    1.1
C    -3.4   -1.7    1.1
O    -3.6   -2.2    2.1
H    -0.8   -0.8    2.4
H    -2.7    0.1    1.9
C    -2.4    0.4   -0.2
C    -3.6    1.3   -0.3
C    -3.6    2.2   -1.5
N    -4.7    3.1   -1.6
C    -4.7    4.3   -0.9
N    -5.9    5.0   -1.0
N    -3.6    4.6   -0.2
H    -2.2   -0.1   -1.1
H    -1.5    1.1   -0.1
H    -3.6    2.0    0.6
H    -4.5    0.7   -0.2
H    -3.6    1.6   -2.4
H    -2.7    2.8   -1.6
H    -5.6    2.7   -1.7
H    -5.8    6.0   -0.6
H    -6.3    5.0   -1.9
H    -3.7    5.6    0.2
N    -3.9   -2.0   -0.1
C    -4.8   -3.1   -0.2
H    -3.6   -1.6   -1.0
H    -4.4   -4.0   -0.9
H    -5.8   -2.8   -0.7
H    -5.0   -3.5    0.8
