          35
 sphere cut out from bulk 
C    -1.8    1.8    4.2
C    -1.2    0.4    4.3
O    -0.2    0.1    4.9
H    -1.1    2.5    3.9
H    -2.1    2.0    5.3
H    -2.7    1.8    3.6
N    -1.9   -0.6    3.6
C    -1.6   -2.0    3.7
C    -0.9   -2.6    2.4
O    -0.6   -3.8    2.4
H    -2.8   -0.4    3.3
H    -0.8   -2.1    4.5
C    -2.7   -2.9    4.1
C    -4.1   -2.7    3.4
C    -4.1   -2.7    1.9
N    -3.6   -3.9    1.4
C    -3.0   -4.0    0.1
N    -2.1   -5.0   -0.0
N    -3.3   -3.2   -0.9
H    -2.9   -2.7    5.2
H    -2.4   -3.9    4.0
H    -4.5   -1.7    3.8
H    -4.8   -3.5    3.8
H    -3.6   -1.9    1.5
H    -5.2   -2.6    1.6
H    -3.1   -4.6    2.0
H    -1.4   -5.0    0.7
H    -1.6   -5.0   -1.0
H    -4.1   -2.6   -0.7
N    -0.6   -1.7    1.4
C     0.0   -2.1    0.2
H    -0.9   -0.8    1.6
H     0.5   -3.0    0.3
H     0.7   -1.3   -0.1
H    -0.7   -2.2   -0.6
