          35
 sphere cut out from bulk 
C     0.2    0.5    0.6
C    -0.5   -0.5    1.5
O    -0.9   -1.6    1.0
H     0.7    1.3    1.2
H    -0.5    0.9   -0.1
H     1.0   -0.0    0.1
N    -0.5   -0.2    2.8
C    -1.3   -1.1    3.8
C    -2.6   -0.4    4.0
O    -2.7    0.7    4.6
H    -0.3    0.7    3.1
H    -1.4   -2.0    3.3
C    -0.5   -1.2    5.1
C    -1.2   -2.1    6.1
C    -0.4   -2.4    7.4
N    -0.3   -1.1    8.2
C     1.0   -0.7    8.6
N     2.0   -0.9    7.8
N     1.0   -0.1    9.8
H    -0.4   -0.2    5.5
H     0.5   -1.6    4.8
H    -2.2   -1.7    6.3
H    -1.4   -3.1    5.6
H     0.6   -2.8    7.2
H    -1.0   -3.1    8.0
H    -1.0   -0.9    8.8
H     2.9   -0.5    8.1
H     1.9   -0.8    6.8
H     1.9    0.4    9.9
N    -3.8   -1.1    3.6
C    -3.8   -2.3    2.9
H    -4.6   -0.6    3.8
H    -4.8   -2.4    2.4
H    -3.7   -3.2    3.5
H    -3.1   -2.4    2.0
