          35
 sphere cut out from bulk 
C     0.4   -2.2    0.2
C     0.2   -1.9    1.7
O     0.8   -2.5    2.6
H     1.5   -2.1   -0.0
H    -0.2   -1.6   -0.4
H     0.2   -3.3    0.1
N    -0.7   -0.9    2.0
C    -1.0   -0.6    3.3
C    -2.4    0.2    3.2
O    -2.8    0.6    2.2
H    -1.2   -0.5    1.3
H    -1.1   -1.5    3.9
C     0.0    0.3    4.1
C     0.0    1.8    3.8
C     0.3    2.2    2.3
N     0.2    3.7    2.1
C    -1.0    4.4    2.0
N    -0.8    5.8    2.1
N    -2.2    3.9    1.9
H     1.0   -0.1    3.8
H    -0.1    0.2    5.2
H     0.8    2.3    4.4
H    -1.0    2.3    4.1
H    -0.5    1.8    1.6
H     1.3    1.9    2.0
H     1.0    4.2    2.6
H    -1.7    6.2    1.9
H    -0.0    6.1    1.6
H    -2.2    2.9    1.9
N    -3.0    0.3    4.4
C    -4.3    1.1    4.5
H    -2.7   -0.1    5.3
H    -4.5    1.3    5.5
H    -5.1    0.6    4.0
H    -4.1    2.1    4.0
