          35
 sphere cut out from bulk 
C     0.9    0.8   -0.1
C    -0.3    0.2    0.6
O    -1.2   -0.3   -0.1
H     1.4   -0.0   -0.7
H     1.6    1.3    0.5
H     0.6    1.4   -0.9
N    -0.3    0.2    1.9
C    -1.3   -0.4    2.8
C    -2.7    0.2    2.7
O    -3.7   -0.5    2.9
H     0.5    0.7    2.4
H    -1.5   -1.4    2.4
C    -0.8   -0.4    4.2
C     0.4   -1.3    4.5
C     0.7   -1.4    6.0
N     1.9   -2.3    6.3
C     1.9   -3.6    6.0
N     0.7   -4.3    6.2
N     2.9   -4.3    5.7
H    -1.7   -0.8    4.8
H    -0.7    0.6    4.6
H     1.3   -0.9    4.0
H     0.2   -2.3    4.1
H    -0.2   -1.9    6.5
H     0.9   -0.5    6.4
H     2.7   -1.8    6.1
H     0.8   -5.3    6.1
H     0.1   -4.0    7.0
H     3.7   -3.7    5.5
N    -2.9    1.6    2.5
C    -1.9    2.7    2.3
H    -3.9    1.8    2.4
H    -2.5    3.6    2.4
H    -1.5    2.7    1.2
H    -1.1    2.6    3.0
