          35
 sphere cut out from bulk 
C    -0.8   -0.9    0.2
C    -0.6   -0.9    1.7
O     0.0   -1.8    2.3
H    -0.3   -1.7   -0.2
H    -0.4    0.0   -0.2
H    -1.9   -0.9   -0.0
N    -1.1    0.2    2.5
C    -2.1    1.2    2.2
C    -3.5    0.7    2.0
O    -3.7   -0.4    1.5
H    -1.0   -0.0    3.5
H    -2.1    1.8    3.1
C    -1.6    2.2    1.1
C    -2.4    2.2   -0.2
C    -1.7    3.0   -1.3
N    -2.5    3.1   -2.5
C    -2.1    3.8   -3.6
N    -1.2    4.8   -3.5
N    -2.7    3.5   -4.8
H    -0.6    2.0    0.9
H    -1.7    3.2    1.5
H    -3.4    2.6   -0.1
H    -2.5    1.2   -0.6
H    -0.7    2.6   -1.5
H    -1.5    4.1   -0.9
H    -3.0    2.3   -2.7
H    -0.8    5.2   -4.3
H    -0.6    4.7   -2.7
H    -2.4    4.1   -5.5
N    -4.6    1.5    2.3
C    -4.5    2.9    2.8
H    -5.5    1.1    2.0
H    -5.5    3.2    3.2
H    -4.3    3.6    1.9
H    -3.8    3.0    3.6
