          35
 sphere cut out from bulk 
C    -3.1    1.7   -0.5
C    -2.3    1.5    0.8
O    -1.3    0.9    0.8
H    -3.5    0.7   -0.8
H    -2.5    2.1   -1.3
H    -4.0    2.4   -0.4
N    -2.9    2.1    1.9
C    -2.4    2.0    3.3
C    -0.8    1.9    3.4
O    -0.2    1.0    4.0
H    -3.8    2.5    1.8
H    -2.6    2.9    3.8
C    -3.0    0.8    4.1
C    -2.8   -0.6    3.5
C    -2.7   -1.7    4.5
N    -1.6   -1.5    5.4
C    -1.6   -1.8    6.7
N    -2.5   -2.8    7.1
N    -0.8   -1.1    7.5
H    -4.1    1.0    4.2
H    -2.6    0.9    5.1
H    -1.8   -0.6    2.9
H    -3.6   -0.8    2.7
H    -2.7   -2.6    4.0
H    -3.7   -1.7    5.1
H    -0.9   -0.7    5.1
H    -2.4   -3.1    8.1
H    -2.6   -3.5    6.5
H    -0.9   -1.4    8.5
N    -0.1    3.0    2.9
C    -0.6    4.1    2.1
H     0.9    2.9    3.0
H     0.2    4.9    2.1
H    -1.5    4.5    2.4
H    -0.7    3.9    1.0
