          35
 sphere cut out from bulk 
C    -0.6    0.4    0.1
C    -0.4    0.7    1.6
O     0.6    1.2    2.0
H    -0.5    1.4   -0.5
H    -1.6   -0.0   -0.1
H     0.1   -0.2   -0.3
N    -1.4    0.4    2.4
C    -1.3    0.5    3.8
C    -1.0   -0.9    4.4
O    -1.8   -1.9    4.3
H    -2.2   -0.2    2.0
H    -0.5    1.2    4.0
C    -2.6    1.0    4.5
C    -3.0    2.4    4.0
C    -4.4    2.8    4.6
N    -4.5    2.8    6.0
C    -4.0    3.8    6.8
N    -4.1    3.5    8.2
N    -3.3    4.8    6.3
H    -2.5    0.9    5.6
H    -3.4    0.2    4.2
H    -3.0    2.5    3.0
H    -2.2    3.1    4.4
H    -5.2    2.2    4.1
H    -4.6    3.9    4.2
H    -4.6    1.9    6.4
H    -3.8    4.2    8.8
H    -5.0    3.1    8.4
H    -3.0    5.4    7.0
N     0.3   -1.1    5.0
C     1.3   -0.1    5.1
H     0.4   -2.0    5.3
H     2.3   -0.6    5.3
H     1.2    0.6    5.9
H     1.5    0.5    4.1
