          35
 sphere cut out from bulk 
C     0.1   -0.2    0.2
C     0.0    0.2    1.7
O     1.1    0.4    2.3
H     1.1    0.1   -0.2
H    -0.7    0.2   -0.4
H     0.0   -1.3    0.1
N    -1.2    0.3    2.2
C    -2.5    0.1    1.7
C    -3.5    0.9    2.5
O    -3.2    1.2    3.7
H    -1.2    0.6    3.2
H    -2.5    0.6    0.7
C    -2.9   -1.4    1.5
C    -2.7   -2.3    2.7
C    -3.8   -2.1    3.8
N    -3.8   -3.1    4.8
C    -4.5   -4.3    4.6
N    -4.5   -5.2    5.7
N    -5.1   -4.5    3.5
H    -2.2   -1.8    0.7
H    -3.9   -1.5    1.1
H    -1.7   -2.1    3.2
H    -2.8   -3.3    2.4
H    -4.8   -2.0    3.4
H    -3.6   -1.1    4.3
H    -3.7   -2.9    5.8
H    -4.8   -6.1    5.5
H    -3.6   -5.2    6.2
H    -5.5   -5.5    3.4
N    -4.7    1.1    2.0
C    -5.3    0.8    0.7
H    -5.3    1.6    2.7
H    -4.5    0.8   -0.0
H    -6.0    1.6    0.5
H    -5.8   -0.1    0.7
