          35
 sphere cut out from bulk 
C     1.0   -0.8    0.1
C     0.5   -0.8    1.6
O     1.3   -1.0    2.5
H     1.8   -0.1    0.0
H     0.2   -0.6   -0.6
H     1.5   -1.8   -0.1
N    -0.8   -0.4    1.7
C    -1.4   -0.5    3.0
C    -2.9   -0.7    2.8
O    -3.4   -0.7    1.7
H    -1.4   -0.4    0.9
H    -1.0   -1.3    3.6
C    -1.2    0.8    3.8
C    -1.6    2.2    3.2
C    -3.1    2.4    3.2
N    -3.5    3.8    2.8
C    -3.4    4.8    3.7
N    -3.6    6.1    3.1
N    -3.1    4.9    5.0
H    -0.1    0.9    4.0
H    -1.6    0.7    4.8
H    -1.3    2.2    2.1
H    -1.1    3.0    3.7
H    -3.5    2.2    4.2
H    -3.7    1.7    2.6
H    -3.4    4.0    1.9
H    -3.7    6.8    3.7
H    -4.5    6.1    2.5
H    -2.8    3.9    5.3
N    -3.6   -1.0    3.9
C    -5.1   -1.2    3.9
H    -3.2   -1.1    4.8
H    -5.3   -2.2    4.4
H    -5.4   -1.3    2.8
H    -5.6   -0.4    4.4
