          35
 sphere cut out from bulk 
C    -0.7    0.9   -0.1
C    -0.5    0.7    1.4
O     0.6    0.8    2.0
H     0.1    0.3   -0.7
H    -0.5    2.0   -0.3
H    -1.7    0.6   -0.5
N    -1.6    0.2    2.1
C    -1.6   -0.1    3.5
C    -2.7   -1.1    3.7
O    -3.6   -1.2    2.9
H    -2.4   -0.0    1.6
H    -0.6   -0.6    3.7
C    -1.6    1.1    4.4
C    -3.0    1.8    4.5
C    -3.5    2.5    3.2
N    -4.7    3.3    3.5
C    -5.2    4.1    2.5
N    -6.4    4.7    3.0
N    -4.8    4.3    1.3
H    -0.9    1.8    4.0
H    -1.3    0.8    5.4
H    -2.9    2.6    5.3
H    -3.8    1.1    4.9
H    -3.7    1.7    2.5
H    -2.7    3.1    2.8
H    -5.3    2.9    4.2
H    -6.7    5.4    2.3
H    -6.4    5.1    3.9
H    -4.0    3.7    1.1
N    -2.7   -1.8    4.8
C    -1.6   -1.9    5.9
H    -3.5   -2.4    5.0
H    -1.6   -2.9    6.3
H    -1.8   -1.2    6.7
H    -0.7   -1.7    5.4
