          35
 sphere cut out from bulk 
C    -0.1   -0.1    0.1
C    -0.1    0.2    1.6
O     0.9    0.6    2.2
H     0.6   -0.9   -0.1
H     0.3    0.8   -0.4
H    -1.1   -0.3   -0.3
N    -1.3   -0.0    2.2
C    -1.5    0.1    3.7
C    -0.8    1.3    4.3
O    -0.0    1.2    5.3
H    -2.0   -0.4    1.7
H    -2.5    0.2    3.8
C    -1.0   -1.2    4.4
C    -1.6   -1.5    5.8
C    -3.1   -1.7    5.8
N    -3.7   -2.1    7.1
C    -3.4   -3.2    7.8
N    -3.2   -4.4    7.0
N    -3.5   -3.2    9.1
H     0.1   -1.2    4.4
H    -1.3   -2.1    3.7
H    -1.4   -0.6    6.4
H    -1.1   -2.3    6.2
H    -3.4   -2.5    5.1
H    -3.7   -0.9    5.4
H    -3.8   -1.3    7.7
H    -2.7   -5.1    7.5
H    -2.9   -4.2    6.0
H    -3.4   -4.1    9.5
N    -1.1    2.5    3.8
C    -1.9    2.9    2.7
H    -0.6    3.3    4.3
H    -2.3    3.9    2.8
H    -2.8    2.3    2.6
H    -1.4    2.8    1.7
