          35
 sphere cut out from bulk 
C    -1.1    0.4    1.5
C    -2.0    0.3    2.7
O    -2.0   -0.6    3.4
H    -1.4    1.1    0.7
H    -1.1   -0.6    1.1
H    -0.1    0.7    1.8
N    -2.8    1.4    3.0
C    -3.0    2.7    2.4
C    -3.2    2.7    0.9
O    -2.5    3.4    0.1
H    -3.3    1.3    3.9
H    -4.0    3.0    2.7
C    -2.1    3.9    2.8
C    -0.6    3.7    2.7
C     0.1    3.0    3.9
N     1.5    3.2    3.9
C     2.4    2.4    3.2
N     3.7    2.8    3.3
N     1.9    1.4    2.5
H    -2.4    4.1    3.9
H    -2.4    4.8    2.2
H    -0.2    4.7    2.6
H    -0.3    3.2    1.8
H    -0.1    1.9    3.9
H    -0.3    3.5    4.8
H     1.9    4.1    4.1
H     4.4    2.1    2.9
H     4.0    3.1    4.2
H     2.7    0.8    2.1
N    -4.1    1.8    0.4
C    -5.0    0.9    1.1
H    -4.2    1.8   -0.7
H    -5.9    0.7    0.4
H    -5.5    1.4    2.0
H    -4.5   -0.0    1.4
