          35
 sphere cut out from bulk 
C     0.2   -0.9   -0.1
C    -0.0   -0.9    1.4
O     0.8   -1.3    2.2
H     0.5   -1.9   -0.4
H     1.1   -0.3   -0.4
H    -0.7   -0.6   -0.7
N    -1.2   -0.3    1.8
C    -1.6   -0.1    3.1
C    -1.8   -1.4    4.0
O    -1.6   -1.4    5.2
H    -1.9    0.1    1.1
H    -0.7    0.3    3.7
C    -2.8    0.8    3.3
C    -2.6    2.2    2.8
C    -3.7    3.2    3.2
N    -3.8    3.4    4.6
C    -3.0    4.3    5.3
N    -3.3    4.3    6.7
N    -2.1    5.1    4.8
H    -3.0    0.8    4.4
H    -3.7    0.3    2.8
H    -2.5    2.3    1.7
H    -1.6    2.6    3.2
H    -4.7    2.8    2.9
H    -3.6    4.1    2.7
H    -4.7    3.2    5.1
H    -2.7    5.0    7.2
H    -3.4    3.4    7.1
H    -2.1    5.1    3.8
N    -2.4   -2.5    3.4
C    -2.8   -2.8    2.1
H    -2.4   -3.3    4.1
H    -1.9   -3.0    1.4
H    -3.4   -2.0    1.7
H    -3.4   -3.7    2.1
