          35
 sphere cut out from bulk 
C     1.3    0.7    1.3
C     0.4   -0.1    2.3
O     0.9   -0.9    3.0
H     2.0    1.3    1.9
H     0.7    1.4    0.6
H     1.9    0.0    0.7
N    -0.9    0.3    2.3
C    -1.8   -0.3    3.3
C    -2.9   -1.0    2.5
O    -3.8   -0.3    1.9
H    -1.2    1.0    1.7
H    -1.2   -1.0    3.8
C    -2.4    0.8    4.2
C    -1.4    1.6    5.0
C    -0.5    0.8    6.0
N     0.5    1.6    6.6
C     1.7    2.0    6.0
N     2.3    3.1    6.6
N     2.2    1.4    4.9
H    -3.0    0.2    5.0
H    -3.1    1.4    3.7
H    -1.9    2.4    5.5
H    -0.7    2.1    4.3
H     0.1   -0.0    5.4
H    -1.1    0.3    6.7
H     0.1    2.4    7.2
H     3.3    3.2    6.2
H     2.3    3.0    7.6
H     1.7    0.7    4.5
N    -2.9   -2.3    2.4
C    -1.9   -3.3    2.9
H    -3.6   -2.7    1.8
H    -1.9   -4.2    2.3
H    -2.1   -3.5    4.0
H    -0.9   -2.9    2.8
