          35
 sphere cut out from bulk 
C     1.5    1.9    2.1
C     1.0    0.5    1.6
O     1.7   -0.2    1.0
H     1.2    2.7    1.5
H     2.5    1.8    2.2
H     1.1    2.1    3.1
N    -0.3    0.2    1.8
C    -1.4    1.1    2.1
C    -2.1    0.8    3.5
O    -2.4    1.8    4.2
H    -0.6   -0.7    1.4
H    -1.0    2.1    2.2
C    -2.5    1.2    1.0
C    -1.8    1.6   -0.4
C    -1.5    0.4   -1.3
N    -0.5    0.8   -2.4
C     0.4   -0.0   -2.9
N     1.0   -0.9   -2.0
N     0.8   -0.1   -4.1
H    -3.2    1.9    1.3
H    -3.0    0.3    0.8
H    -0.9    2.2   -0.2
H    -2.5    2.3   -0.9
H    -2.4   -0.0   -1.7
H    -1.0   -0.4   -0.7
H    -1.0    1.4   -3.1
H     1.8   -1.4   -2.4
H     1.2   -0.6   -1.0
H     0.2    0.5   -4.7
N    -2.5   -0.4    3.8
C    -2.3   -1.7    3.1
H    -2.9   -0.5    4.7
H    -2.6   -1.6    2.0
H    -3.0   -2.4    3.5
H    -1.3   -2.1    3.2
