          35
 sphere cut out from bulk 
C    -0.1    1.4    0.6
C     0.1    0.2    1.5
O     1.2    0.1    2.1
H    -0.5    1.1   -0.4
H     0.9    1.9    0.4
H    -0.8    2.1    1.0
N    -0.9   -0.6    1.7
C    -2.3   -0.5    1.2
C    -3.0    0.7    1.8
O    -3.7    1.4    1.0
H    -0.7   -1.4    2.4
H    -2.3   -0.3    0.2
C    -3.0   -1.8    1.5
C    -4.4   -1.9    0.9
C    -5.2   -3.2    1.2
N    -4.5   -4.4    0.8
C    -4.5   -4.8   -0.6
N    -3.8   -5.9   -0.8
N    -5.2   -4.0   -1.5
H    -3.1   -2.0    2.6
H    -2.4   -2.6    1.1
H    -4.4   -1.8   -0.2
H    -5.0   -1.1    1.3
H    -6.2   -3.1    0.7
H    -5.3   -3.3    2.3
H    -3.7   -4.7    1.3
H    -3.9   -6.2   -1.8
H    -3.9   -6.6   -0.2
H    -5.2   -4.5   -2.4
N    -3.0    1.0    3.1
C    -2.2    0.4    4.2
H    -3.5    1.9    3.4
H    -2.6    0.8    5.2
H    -1.1    0.6    4.2
H    -2.4   -0.7    4.2
