          35
 sphere cut out from bulk 
C    -0.8   -1.0    1.1
C     0.1    0.0    1.6
O     1.4   -0.2    1.7
H    -1.6   -1.2    1.9
H    -1.4   -0.7    0.2
H    -0.3   -1.9    0.9
N    -0.3    1.3    1.9
C    -1.7    1.8    1.7
C    -1.6    3.1    1.0
O    -0.7    3.9    1.2
H     0.4    2.0    2.1
H    -2.3    1.1    1.1
C    -2.4    2.0    3.1
C    -2.6    0.7    4.0
C    -1.4    0.3    4.8
N    -1.6   -0.8    5.7
C    -2.4   -0.7    6.8
N    -2.6   -2.0    7.4
N    -2.9    0.4    7.2
H    -3.4    2.5    2.9
H    -1.8    2.7    3.7
H    -2.9   -0.1    3.3
H    -3.5    0.9    4.6
H    -1.2    1.2    5.5
H    -0.5    0.1    4.2
H    -1.6   -1.7    5.2
H    -3.0   -1.9    8.3
H    -1.7   -2.5    7.5
H    -3.4    0.3    8.1
N    -2.7    3.5    0.2
C    -3.9    2.7   -0.1
H    -2.6    4.4   -0.2
H    -4.5    3.3   -0.7
H    -4.4    2.4    0.8
H    -3.6    1.8   -0.7
