          35
 sphere cut out from bulk 
C     0.4   -1.1    0.6
C     0.3   -0.3    1.9
O     1.3    0.3    2.3
H     1.2   -1.8    0.6
H     0.6   -0.4   -0.3
H    -0.5   -1.6    0.3
N    -0.9   -0.3    2.6
C    -2.2   -0.8    2.3
C    -3.2    0.3    2.3
O    -3.9    0.5    3.3
H    -0.8    0.3    3.4
H    -2.2   -1.3    1.3
C    -2.6   -1.9    3.3
C    -1.7   -3.2    3.2
C    -2.2   -4.2    2.1
N    -1.5   -5.4    2.0
C    -0.2   -5.6    1.4
N     0.3   -6.8    1.7
N     0.4   -4.7    0.8
H    -3.6   -2.2    3.2
H    -2.5   -1.5    4.3
H    -1.8   -3.8    4.2
H    -0.7   -3.0    3.1
H    -2.1   -3.7    1.1
H    -3.2   -4.4    2.2
H    -1.6   -6.0    2.8
H     1.2   -7.0    1.1
H    -0.3   -7.6    1.6
H    -0.0   -3.8    0.8
N    -3.3    1.1    1.2
C    -2.5    1.1    0.0
H    -3.9    1.9    1.4
H    -3.0    1.7   -0.7
H    -2.4    0.1   -0.4
H    -1.5    1.5    0.2
