          35
 sphere cut out from bulk 
C     0.2   -0.2    0.1
C     0.2   -0.2    1.6
O     1.3   -0.2    2.3
H     1.2   -0.4   -0.2
H    -0.2    0.7   -0.3
H    -0.4   -1.1   -0.2
N    -1.0   -0.1    2.3
C    -2.3   -0.0    1.7
C    -2.6    1.3    1.0
O    -3.6    1.3    0.2
H    -0.9   -0.2    3.3
H    -2.4   -0.7    0.9
C    -3.4   -0.3    2.8
C    -3.5    0.6    4.0
C    -2.9    0.1    5.3
N    -1.4    0.1    5.2
C    -0.6   -0.8    5.9
N    -1.3   -1.8    6.7
N     0.7   -1.0    5.7
H    -3.2   -1.4    3.1
H    -4.3   -0.3    2.2
H    -4.6    0.8    4.2
H    -3.2    1.6    3.7
H    -3.2   -0.9    5.5
H    -3.2    0.8    6.1
H    -0.9    1.0    5.1
H    -2.0   -1.4    7.3
H    -0.6   -2.4    7.2
H     1.1   -0.4    4.9
N    -2.0    2.5    1.3
C    -0.9    2.8    2.2
H    -2.4    3.2    0.7
H    -0.8    3.9    2.2
H     0.1    2.4    1.9
H    -1.1    2.5    3.2
