          35
 sphere cut out from bulk 
C     0.2    0.3   -0.4
C     0.6    0.1    1.1
O     1.7    0.4    1.5
H    -0.2   -0.6   -0.8
H     1.1    0.6   -0.9
H    -0.5    1.1   -0.5
N    -0.5   -0.4    1.9
C    -1.9   -0.4    1.5
C    -2.5    1.0    1.4
O    -2.1    1.9    2.2
H    -0.2   -0.2    2.9
H    -2.0   -0.9    0.6
C    -2.6   -1.2    2.6
C    -2.7   -2.7    2.4
C    -1.4   -3.5    2.4
N    -0.7   -3.4    1.1
C    -1.3   -3.7   -0.1
N    -1.9   -4.9   -0.1
N    -1.2   -2.8   -1.1
H    -3.7   -0.8    2.6
H    -2.2   -1.0    3.6
H    -3.3   -3.0    1.5
H    -3.3   -3.1    3.3
H    -1.6   -4.6    2.5
H    -0.7   -3.2    3.2
H    -0.2   -2.5    1.1
H    -2.2   -5.2   -1.1
H    -1.5   -5.6    0.4
H    -1.5   -3.2   -1.9
N    -3.5    1.2    0.5
C    -4.0    0.2   -0.4
H    -3.9    2.1    0.5
H    -4.6    0.7   -1.1
H    -4.6   -0.6    0.1
H    -3.2   -0.3   -1.0
