          35
 sphere cut out from bulk 
C     0.2   -1.9    0.4
C     0.1   -0.7    1.4
O     0.7    0.4    1.1
H    -0.2   -2.8    0.9
H     1.2   -2.0    0.1
H    -0.4   -1.7   -0.5
N    -0.5   -0.9    2.5
C    -0.8    0.2    3.5
C    -0.1    0.0    4.9
O    -0.5    0.7    5.8
H    -1.0   -1.8    2.7
H    -0.3    1.1    3.0
C    -2.3    0.5    3.6
C    -3.1   -0.7    4.2
C    -4.6   -0.3    4.3
N    -5.3   -1.4    4.9
C    -6.8   -1.4    4.9
N    -7.3   -2.5    5.6
N    -7.5   -0.5    4.4
H    -2.7    0.8    2.6
H    -2.4    1.4    4.2
H    -2.7   -0.9    5.2
H    -3.0   -1.6    3.6
H    -5.0   -0.1    3.3
H    -4.7    0.6    4.9
H    -4.9   -1.9    5.7
H    -6.8   -3.4    5.4
H    -8.3   -2.5    5.5
H    -7.0    0.3    4.1
N     0.9   -0.8    4.9
C     1.7   -1.0    6.1
H     1.1   -1.3    4.0
H     1.2   -0.5    6.9
H     2.7   -0.6    6.0
H     1.8   -2.1    6.4
