          35
 sphere cut out from bulk 
C    -0.0    1.5    0.3
C    -0.0    0.9    1.8
O     0.9    1.1    2.5
H     0.8    1.0   -0.2
H     0.1    2.6    0.4
H    -1.0    1.3   -0.2
N    -1.1    0.2    2.1
C    -1.4   -0.6    3.3
C    -2.5    0.1    4.3
O    -3.4   -0.6    4.6
H    -1.8    0.1    1.4
H    -1.9   -1.5    3.0
C    -0.2   -1.1    4.1
C    -0.5   -2.0    5.3
C    -1.2   -3.3    4.9
N    -1.6   -4.2    6.0
C    -2.7   -3.9    6.8
N    -3.7   -3.2    6.3
N    -2.7   -4.5    8.0
H     0.4   -0.3    4.4
H     0.5   -1.6    3.4
H    -1.1   -1.5    6.0
H     0.4   -2.3    5.8
H    -0.5   -3.9    4.2
H    -2.1   -3.1    4.2
H    -0.9   -4.7    6.5
H    -4.4   -2.9    6.9
H    -3.5   -2.5    5.6
H    -3.5   -4.3    8.5
N    -2.3    1.3    4.8
C    -1.3    2.3    4.5
H    -3.1    1.6    5.3
H    -1.1    2.9    5.4
H    -1.6    3.0    3.7
H    -0.3    1.8    4.2
