          35
 sphere cut out from bulk 
C     0.5   -0.7    0.0
C     0.2   -0.5    1.5
O     1.1   -0.8    2.3
H     1.3   -0.0   -0.3
H    -0.4   -0.4   -0.6
H     0.8   -1.7   -0.2
N    -1.0   -0.1    1.9
C    -1.4    0.0    3.3
C    -2.9   -0.1    3.3
O    -3.6    0.2    2.3
H    -1.7    0.1    1.2
H    -0.9   -0.8    3.8
C    -0.9    1.3    3.9
C    -1.5    2.6    3.4
C    -2.7    3.1    4.1
N    -3.5    4.1    3.4
C    -4.8    4.0    3.0
N    -5.3    2.7    2.9
N    -5.5    5.1    2.9
H     0.2    1.3    3.8
H    -1.0    1.3    5.0
H    -1.8    2.5    2.3
H    -0.8    3.4    3.4
H    -2.5    3.5    5.1
H    -3.4    2.2    4.3
H    -3.2    5.1    3.6
H    -6.2    2.6    2.5
H    -4.7    2.0    2.5
H    -6.4    4.9    2.5
N    -3.4   -0.5    4.5
C    -4.8   -0.6    4.7
H    -2.8   -0.7    5.3
H    -5.0   -1.1    5.7
H    -5.3   -1.1    3.9
H    -5.3    0.4    4.8
