          35
 sphere cut out from bulk 
C    -0.1   -0.1   -0.2
C    -0.1    0.0    1.3
O     1.0    0.1    1.9
H     0.8    0.3   -0.6
H    -0.9    0.4   -0.7
H    -0.2   -1.2   -0.5
N    -1.2    0.0    2.0
C    -2.6   -0.3    1.5
C    -3.6    0.3    2.4
O    -4.3   -0.3    3.1
H    -1.1    0.0    3.0
H    -2.7    0.1    0.5
C    -2.8   -1.8    1.3
C    -2.4   -2.8    2.5
C    -0.9   -3.0    2.7
N    -0.3   -3.4    1.5
C     1.1   -3.7    1.4
N     1.9   -2.8    2.1
N     1.5   -4.7    0.7
H    -2.3   -2.2    0.4
H    -3.9   -2.0    1.1
H    -2.9   -3.7    2.3
H    -2.9   -2.4    3.4
H    -0.8   -3.8    3.5
H    -0.4   -2.2    3.1
H    -0.7   -4.2    1.0
H     2.9   -3.0    2.0
H     1.6   -1.9    2.2
H     2.5   -4.8    0.6
N    -3.6    1.7    2.4
C    -2.8    2.6    1.6
H    -4.3    2.1    3.1
H    -2.8    2.3    0.6
H    -1.8    2.8    2.0
H    -3.4    3.6    1.6
