          35
 sphere cut out from bulk 
C    -1.9    0.9    0.8
C    -1.1    0.2    1.9
O    -0.1    0.7    2.3
H    -2.1    1.9    1.1
H    -2.9    0.4    0.6
H    -1.4    0.9   -0.1
N    -1.6   -1.0    2.3
C    -1.1   -1.7    3.5
C     0.1   -2.6    3.2
O     0.2   -3.8    3.4
H    -2.6   -1.3    2.0
H    -0.8   -0.9    4.2
C    -2.2   -2.5    4.2
C    -2.8   -3.7    3.3
C    -4.3   -3.8    3.4
N    -5.0   -3.8    2.1
C    -4.9   -2.7    1.3
N    -5.1   -3.0   -0.1
N    -4.6   -1.5    1.6
H    -3.0   -1.8    4.5
H    -1.8   -2.9    5.1
H    -2.3   -4.6    3.6
H    -2.5   -3.5    2.3
H    -4.8   -3.0    4.1
H    -4.6   -4.8    3.9
H    -5.3   -4.7    1.7
H    -5.0   -2.2   -0.7
H    -4.7   -3.8   -0.4
H    -4.7   -1.4    2.6
N     1.2   -1.9    2.6
C     2.4   -2.5    2.2
H     1.0   -0.9    2.5
H     3.2   -2.1    2.8
H     2.6   -2.4    1.2
H     2.4   -3.6    2.5
