          35
 sphere cut out from bulk 
C    -0.4    1.4    0.1
C    -0.1    0.4    1.3
O     1.0    0.3    1.8
H     0.6    1.8   -0.2
H    -1.0    2.2    0.4
H    -0.8    0.9   -0.7
N    -1.2   -0.3    1.8
C    -2.6   -0.2    1.3
C    -3.5   -0.5    2.5
O    -3.1   -1.3    3.4
H    -1.1   -0.9    2.6
H    -2.8    0.8    0.9
C    -2.9   -1.3    0.2
C    -4.2   -1.1   -0.5
C    -4.3    0.1   -1.4
N    -5.6    0.6   -1.7
C    -6.3    1.3   -0.8
N    -7.6    1.6   -1.3
N    -5.8    1.7    0.3
H    -2.8   -2.3    0.7
H    -2.0   -1.2   -0.5
H    -5.0   -1.1    0.2
H    -4.4   -2.0   -1.1
H    -3.7   -0.1   -2.3
H    -3.8    1.0   -0.9
H    -6.2   -0.0   -2.3
H    -8.2    2.3   -0.7
H    -7.7    1.8   -2.3
H    -6.5    2.4    0.8
N    -4.7    0.1    2.5
C    -5.7   -0.1    3.6
H    -4.9    0.7    1.7
H    -5.8   -1.2    3.8
H    -6.6    0.3    3.2
H    -5.4    0.4    4.5
