          35
 sphere cut out from bulk 
C    -2.5    1.1   -0.9
C    -2.4    0.4    0.5
O    -2.6   -0.8    0.6
H    -3.5    1.0   -1.3
H    -1.8    0.6   -1.6
H    -2.2    2.2   -0.8
N    -2.0    1.2    1.6
C    -1.7    0.6    2.8
C    -3.0    0.2    3.7
O    -2.8   -0.4    4.8
H    -1.6    2.1    1.3
H    -1.3   -0.4    2.7
C    -0.8    1.5    3.7
C    -1.4    2.7    4.3
C    -0.7    4.0    4.2
N    -0.8    4.5    2.8
C     0.0    4.1    1.8
N     1.4    4.1    2.0
N    -0.5    3.7    0.6
H     0.0    1.8    3.0
H    -0.3    0.8    4.4
H    -1.6    2.5    5.4
H    -2.5    2.8    4.0
H     0.4    3.9    4.4
H    -1.1    4.8    4.8
H    -1.8    4.5    2.4
H     2.0    3.9    1.3
H     1.7    4.9    2.6
H     0.2    3.6   -0.1
N    -4.2    0.7    3.2
C    -5.4    0.3    3.9
H    -4.2    1.1    2.3
H    -5.2   -0.1    4.9
H    -6.0   -0.5    3.3
H    -6.1    1.2    4.0
