          35
 sphere cut out from bulk 
C     0.2    0.1    0.1
C     0.3   -0.5    1.5
O     1.1   -1.4    1.8
H    -0.8    0.1   -0.3
H     0.8   -0.6   -0.5
H     0.7    1.1    0.1
N    -0.6   -0.1    2.4
C    -1.6    1.0    2.3
C    -1.0    2.4    2.0
O     0.1    2.7    2.5
H    -0.5   -0.5    3.4
H    -2.3    0.7    1.5
C    -2.4    1.1    3.6
C    -3.5   -0.0    3.9
C    -3.0   -1.5    3.8
N    -1.9   -1.8    4.5
C    -1.1   -3.0    4.3
N    -0.1   -3.1    5.1
N    -1.5   -3.7    3.3
H    -2.9    2.0    3.6
H    -1.7    1.1    4.4
H    -4.3    0.1    3.2
H    -3.9    0.2    4.9
H    -2.8   -1.7    2.7
H    -3.9   -2.1    4.0
H    -1.9   -1.6    5.5
H     0.6   -3.9    4.8
H     0.5   -2.3    5.3
H    -0.8   -4.5    3.1
N    -1.8    3.2    1.2
C    -3.0    2.9    0.6
H    -1.3    4.1    1.1
H    -3.8    2.7    1.3
H    -3.0    2.1   -0.2
H    -3.4    3.9    0.1
