          35
 sphere cut out from bulk 
C    -0.1   -2.4    1.0
C    -0.6   -2.0    2.5
O    -0.6   -2.9    3.3
H    -0.5   -3.4    0.8
H     1.0   -2.4    1.0
H    -0.5   -1.6    0.3
N    -0.9   -0.7    2.7
C    -1.2   -0.2    4.0
C    -2.5    0.6    4.0
O    -2.6    1.7    4.3
H    -0.7   -0.0    1.9
H    -1.3   -1.1    4.6
C    -0.0    0.7    4.6
C     0.5    1.8    3.7
C     1.7    1.4    2.9
N     1.9    2.3    1.7
C     1.0    2.4    0.7
N     0.4    1.1    0.3
N     0.6    3.4    0.0
H     0.8   -0.0    4.9
H    -0.4    1.1    5.6
H     0.7    2.7    4.4
H    -0.4    2.2    3.1
H     1.6    0.4    2.5
H     2.6    1.4    3.5
H     2.2    3.2    2.0
H    -0.1    1.2   -0.6
H     1.1    0.4    0.2
H     0.9    4.3    0.4
N    -3.6   -0.2    3.7
C    -3.8   -1.6    3.3
H    -4.5    0.4    3.6
H    -3.7   -1.7    2.2
H    -4.7   -1.9    3.6
H    -3.0   -2.2    3.8
