          35
 sphere cut out from bulk 
C    -0.5    0.4   -0.0
C    -0.1    0.1    1.4
O     1.1   -0.0    1.7
H     0.3    0.3   -0.7
H    -1.0    1.4   -0.1
H    -1.3   -0.4   -0.3
N    -1.0    0.1    2.4
C    -2.5    0.2    2.2
C    -3.0    1.0    3.4
O    -3.6    0.5    4.4
H    -0.6   -0.1    3.3
H    -2.7    0.7    1.3
C    -3.1   -1.2    2.2
C    -4.6   -1.2    2.0
C    -5.4   -2.1    3.0
N    -6.8   -1.8    3.0
C    -7.4   -0.7    3.6
N    -6.7   -0.1    4.6
N    -8.6   -0.4    3.2
H    -2.9   -1.7    3.2
H    -2.6   -1.8    1.4
H    -5.0   -0.1    2.1
H    -4.9   -1.4    0.9
H    -5.0   -1.9    4.0
H    -5.2   -3.1    2.7
H    -7.4   -2.2    2.3
H    -7.0    0.9    4.8
H    -5.7   -0.1    4.5
H    -9.0    0.4    3.7
N    -2.9    2.4    3.3
C    -2.2    3.1    2.3
H    -3.2    2.9    4.2
H    -2.4    4.2    2.5
H    -2.6    2.9    1.3
H    -1.1    2.9    2.2
