          35
 sphere cut out from bulk 
C     0.1   -0.4    0.1
C     0.1   -0.0    1.6
O     1.1    0.1    2.2
H     1.1   -0.2   -0.3
H    -0.7    0.1   -0.5
H    -0.1   -1.5    0.0
N    -1.1    0.2    2.2
C    -2.5    0.1    1.6
C    -3.4    0.9    2.6
O    -3.0    1.3    3.7
H    -1.1    0.5    3.2
H    -2.5    0.6    0.7
C    -3.0   -1.4    1.4
C    -2.9   -2.3    2.6
C    -3.9   -2.0    3.7
N    -4.0   -3.1    4.7
C    -4.9   -4.1    4.5
N    -5.0   -5.0    5.6
N    -5.5   -4.2    3.4
H    -2.4   -1.8    0.6
H    -4.0   -1.3    1.0
H    -1.9   -2.3    3.1
H    -3.1   -3.3    2.3
H    -4.9   -1.8    3.3
H    -3.6   -1.1    4.3
H    -3.9   -2.8    5.7
H    -5.4   -5.9    5.4
H    -4.1   -5.2    6.0
H    -6.1   -5.1    3.3
N    -4.6    1.1    2.1
C    -5.7    1.8    2.9
H    -4.9    0.7    1.2
H    -6.2    2.5    2.3
H    -5.2    2.3    3.8
H    -6.4    1.1    3.3
