          35
 sphere cut out from bulk 
C     0.5   -1.3    0.2
C     0.2   -1.3    1.7
O     0.9   -2.0    2.5
H     0.4   -2.3   -0.2
H     1.6   -1.0    0.0
H    -0.1   -0.6   -0.4
N    -0.8   -0.4    2.1
C    -1.2   -0.4    3.5
C    -2.7    0.1    3.5
O    -3.2    0.6    2.5
H    -1.4    0.1    1.4
H    -1.2   -1.4    3.9
C    -0.3    0.5    4.4
C    -0.3    2.0    4.0
C     0.6    2.8    4.9
N    -0.0    2.9    6.2
C     0.7    3.5    7.3
N    -0.2    3.7    8.4
N     1.9    4.0    7.3
H     0.7    0.1    4.4
H    -0.7    0.4    5.4
H    -1.3    2.4    3.9
H     0.1    2.0    3.0
H     0.7    3.8    4.4
H     1.6    2.4    5.0
H    -1.0    3.1    6.2
H     0.4    4.0    9.2
H    -0.7    2.9    8.7
H     2.3    3.9    6.4
N    -3.3   -0.1    4.6
C    -4.7    0.3    4.8
H    -2.9   -0.6    5.4
H    -4.8    1.0    5.7
H    -5.4   -0.5    5.0
H    -5.0    0.9    3.9
