          35
 sphere cut out from bulk 
C     0.3   -0.8    0.8
C     0.1   -0.4    2.2
O     1.1   -0.5    3.1
H    -0.4   -0.4    0.1
H     0.2   -1.9    0.8
H     1.3   -0.6    0.5
N    -1.1    0.1    2.7
C    -2.3    0.4    2.0
C    -2.8   -0.8    1.1
O    -2.6   -1.9    1.5
H    -1.0    0.3    3.7
H    -3.1    0.4    2.8
C    -2.4    1.9    1.4
C    -1.4    2.2    0.3
C    -1.6    3.7   -0.1
N    -0.6    4.2   -1.1
C     0.7    4.6   -0.7
N     1.5    4.8   -1.8
N     1.2    4.7    0.5
H    -2.3    2.5    2.3
H    -3.4    2.0    1.0
H    -1.4    1.6   -0.5
H    -0.3    2.1    0.7
H    -1.5    4.4    0.7
H    -2.6    3.8   -0.6
H    -0.6    3.7   -2.0
H     2.4    5.2   -1.5
H     1.1    5.4   -2.6
H     0.6    4.4    1.2
N    -3.4   -0.5   -0.1
C    -3.9   -1.5   -0.9
H    -3.5    0.5   -0.3
H    -5.0   -1.3   -1.1
H    -3.7   -2.4   -0.5
H    -3.5   -1.4   -1.9
