          35
 sphere cut out from bulk 
C    -1.6    1.0    4.5
C    -0.9    0.5    3.3
O     0.3    0.6    3.1
H    -0.9    1.5    5.1
H    -2.0    0.1    5.1
H    -2.5    1.6    4.3
N    -1.7   -0.1    2.3
C    -3.1   -0.5    2.4
C    -3.5   -1.6    3.4
O    -4.5   -1.6    4.0
H    -1.2   -0.5    1.5
H    -3.6    0.4    2.9
C    -3.6   -0.7    1.0
C    -5.1   -1.2    0.9
C    -6.2   -0.1    1.1
N    -6.2    0.4    2.5
C    -5.7    1.6    3.0
N    -5.8    2.6    2.0
N    -5.2    1.9    4.1
H    -3.0   -1.5    0.5
H    -3.5    0.2    0.4
H    -5.3   -2.0    1.5
H    -5.3   -1.5   -0.2
H    -7.2   -0.5    0.9
H    -6.0    0.8    0.5
H    -6.0   -0.3    3.2
H    -5.6    3.5    2.5
H    -6.7    2.7    1.5
H    -5.1    1.0    4.7
N    -2.6   -2.7    3.5
C    -1.4   -3.1    2.8
H    -3.0   -3.4    4.2
H    -1.2   -4.1    3.0
H    -0.6   -2.5    3.1
H    -1.5   -3.0    1.7
