          35
 sphere cut out from bulk 
C    -0.4   -0.2   -0.2
C    -0.0   -0.8    1.2
O     1.0   -1.5    1.3
H    -1.4   -0.5   -0.5
H     0.3   -0.6   -0.9
H    -0.4    0.9   -0.1
N    -0.9   -0.5    2.2
C    -2.0    0.4    2.3
C    -1.4    1.9    2.4
O    -0.4    2.1    3.1
H    -0.5   -0.8    3.1
H    -2.5    0.3    1.3
C    -3.0    0.1    3.4
C    -2.7    0.6    4.8
C    -1.5    0.1    5.5
N    -1.3    0.5    6.9
C    -0.9    1.8    7.2
N    -1.1    2.1    8.5
N    -0.4    2.7    6.4
H    -3.1   -1.0    3.4
H    -4.0    0.5    3.0
H    -3.6    0.3    5.4
H    -2.7    1.7    4.8
H    -0.6    0.4    5.0
H    -1.5   -1.0    5.5
H    -2.0    0.2    7.5
H    -0.6    3.0    8.7
H    -0.8    1.4    9.2
H    -0.4    2.4    5.4
N    -2.2    2.9    1.9
C    -3.4    2.7    1.1
H    -1.9    3.8    2.1
H    -4.3    2.4    1.7
H    -3.3    2.1    0.2
H    -3.7    3.7    0.8
