          35
 sphere cut out from bulk 
C    -0.0    0.3    0.1
C     0.0    0.1    1.6
O     1.1   -0.2    2.2
H     0.4   -0.5   -0.4
H     0.6    1.2   -0.1
H    -1.0    0.5   -0.3
N    -1.2    0.2    2.2
C    -1.3    0.0    3.7
C    -1.4   -1.5    4.1
O    -2.4   -2.1    4.4
H    -2.0    0.3    1.7
H    -0.4    0.5    4.1
C    -2.6    0.8    4.2
C    -2.6    0.9    5.7
C    -3.9    1.6    6.2
N    -4.2    2.9    5.7
C    -3.3    4.0    5.7
N    -2.7    4.1    7.0
N    -3.2    4.7    4.7
H    -3.5    0.2    3.9
H    -2.6    1.8    3.7
H    -1.7    1.5    6.0
H    -2.5   -0.1    6.2
H    -3.8    1.7    7.3
H    -4.7    0.9    6.0
H    -4.6    2.9    4.7
H    -3.3    3.9    7.8
H    -2.2    5.0    7.1
H    -2.6    5.6    4.9
N    -0.2   -2.1    4.0
C     0.0   -3.5    4.2
H     0.6   -1.5    3.6
H    -0.9   -3.9    4.7
H     0.9   -3.7    4.9
H     0.1   -4.0    3.3
