          35
 sphere cut out from bulk 
C    -0.4    1.1    1.2
C    -0.0    0.2    2.3
O     1.0    0.3    3.0
H    -0.5    0.6    0.2
H     0.5    1.8    1.0
H    -1.3    1.7    1.4
N    -1.0   -0.7    2.7
C    -2.2   -1.1    2.0
C    -3.3   -1.4    3.1
O    -3.5   -2.6    3.4
H    -0.7   -1.4    3.4
H    -2.5   -0.2    1.4
C    -2.1   -2.2    1.0
C    -3.3   -2.4    0.1
C    -3.1   -3.5   -1.0
N    -2.1   -3.1   -2.0
C    -0.9   -3.8   -2.3
N    -0.4   -4.6   -1.3
N    -0.3   -3.7   -3.4
H    -1.8   -3.1    1.5
H    -1.2   -2.0    0.3
H    -3.6   -1.5   -0.4
H    -4.1   -2.8    0.7
H    -4.0   -3.7   -1.5
H    -2.8   -4.4   -0.6
H    -2.4   -2.5   -2.8
H    -0.4   -4.2   -0.4
H     0.5   -5.0   -1.6
H    -0.8   -3.2   -4.2
N    -3.9   -0.4    3.6
C    -3.6    1.1    3.5
H    -4.5   -0.6    4.4
H    -3.8    1.4    2.4
H    -2.6    1.3    3.8
H    -4.3    1.6    4.1
