          35
 sphere cut out from bulk 
C     0.5   -1.1   -0.5
C     0.3   -0.5    0.9
O     1.2   -0.0    1.6
H     1.2   -1.9   -0.4
H     1.0   -0.3   -1.1
H    -0.4   -1.4   -1.0
N    -1.0   -0.5    1.3
C    -1.6   -0.2    2.6
C    -1.4    1.2    3.2
O    -2.3    1.7    3.9
H    -1.7   -1.0    0.7
H    -2.7   -0.2    2.4
C    -1.4   -1.3    3.7
C    -0.0   -1.4    4.3
C     0.2   -0.4    5.5
N    -0.7   -0.6    6.6
C    -1.2    0.5    7.4
N    -1.4    1.7    6.7
N    -1.3    0.2    8.7
H    -1.7   -2.3    3.2
H    -2.2   -1.1    4.5
H     0.8   -1.3    3.6
H     0.1   -2.4    4.8
H     0.2    0.6    5.2
H     1.3   -0.6    5.9
H    -0.6   -1.4    7.2
H    -1.8    2.4    7.3
H    -1.8    1.6    5.8
H    -1.8    1.0    9.1
N    -0.3    1.9    2.9
C    -0.0    3.2    3.4
H     0.4    1.3    2.4
H     0.8    3.6    2.9
H     0.2    3.1    4.5
H    -0.9    3.8    3.4
