          35
 sphere cut out from bulk 
C     0.1    0.3    0.0
C     0.1    0.1    1.5
O     1.1    0.2    2.2
H     0.5    1.3   -0.2
H    -0.9    0.2   -0.4
H     0.7   -0.5   -0.4
N    -1.1   -0.0    2.1
C    -1.4   -0.0    3.6
C    -1.1   -1.4    4.2
O    -1.8   -2.0    5.0
H    -2.0   -0.1    1.5
H    -0.7    0.7    4.0
C    -2.8    0.5    3.9
C    -4.0    0.0    3.0
C    -4.3   -1.5    2.9
N    -4.6   -2.1    4.2
C    -5.8   -1.8    4.8
N    -5.8   -2.3    6.1
N    -6.8   -1.2    4.2
H    -2.8    1.6    3.9
H    -3.0    0.2    4.9
H    -3.8    0.4    1.9
H    -4.9    0.6    3.3
H    -3.5   -2.0    2.5
H    -5.2   -1.6    2.3
H    -3.8   -2.2    4.8
H    -6.8   -2.4    6.5
H    -5.3   -3.1    6.3
H    -7.6   -1.2    4.7
N     0.2   -1.8    4.0
C     0.7   -3.1    4.5
H     0.8   -1.2    3.4
H     1.7   -3.3    4.1
H     0.0   -3.9    4.4
H     0.9   -3.0    5.6
