          35
 sphere cut out from bulk 
C     1.3   -0.8    0.4
C     0.8   -0.8    1.8
O     1.5   -1.0    2.8
H     2.2   -0.2    0.3
H     0.5   -0.6   -0.4
H     1.6   -1.9    0.2
N    -0.5   -0.4    1.9
C    -1.2   -0.3    3.2
C    -2.7   -0.5    2.9
O    -3.1   -0.3    1.8
H    -1.1   -0.3    1.1
H    -0.8   -1.2    3.8
C    -0.9    1.0    4.0
C    -1.5    2.2    3.4
C    -1.0    3.5    4.1
N    -1.6    4.7    3.7
C    -2.9    5.1    4.1
N    -3.4    6.2    3.4
N    -3.6    4.5    5.0
H     0.2    1.0    4.1
H    -1.2    0.9    5.0
H    -2.6    2.2    3.4
H    -1.2    2.3    2.3
H     0.1    3.6    4.0
H    -1.2    3.4    5.2
H    -1.4    5.0    2.7
H    -4.3    6.5    3.9
H    -2.8    7.0    3.3
H    -3.2    3.6    5.3
N    -3.5   -0.8    4.0
C    -3.2   -1.1    5.3
H    -4.5   -0.8    3.7
H    -3.9   -1.8    5.7
H    -3.2   -0.2    6.0
H    -2.2   -1.5    5.4
