          35
 sphere cut out from bulk 
C    -0.7   -0.8   -0.1
C    -0.3   -0.7    1.3
O     0.9   -0.8    1.7
H    -0.1   -0.1   -0.7
H    -1.7   -0.7   -0.3
H    -0.4   -1.8   -0.5
N    -1.3   -0.5    2.2
C    -1.1   -0.4    3.6
C    -2.3   -1.0    4.3
O    -2.3   -2.1    4.8
H    -2.2   -0.5    1.9
H    -0.2   -1.1    3.9
C    -0.7    1.0    4.1
C    -0.1    1.1    5.5
C    -1.2    0.9    6.6
N    -0.6    1.2    8.0
C    -0.8    2.5    8.4
N    -0.3    2.6    9.8
N    -1.2    3.4    7.7
H    -1.5    1.7    4.0
H     0.1    1.3    3.4
H     0.3    2.1    5.7
H     0.7    0.4    5.7
H    -1.5   -0.2    6.7
H    -2.1    1.5    6.5
H    -0.7    0.5    8.7
H    -0.2    3.6   10.1
H     0.5    2.0   10.0
H    -1.2    4.3    8.2
N    -3.4   -0.2    4.3
C    -4.6   -0.6    5.0
H    -3.3    0.8    4.1
H    -4.7   -1.7    5.0
H    -5.5   -0.2    4.5
H    -4.7   -0.2    6.0
