          35
 sphere cut out from bulk 
C    -0.2    0.5    2.0
C    -0.8   -0.6    2.8
O    -0.1   -1.3    3.5
H    -0.4    1.5    2.4
H    -0.5    0.5    0.9
H     0.9    0.4    2.0
N    -2.2   -0.8    2.8
C    -3.2   -0.2    2.0
C    -3.2   -0.8    0.5
O    -2.1   -1.1   -0.0
H    -2.4   -1.6    3.4
H    -4.2   -0.6    2.5
C    -3.4    1.3    2.0
C    -3.5    1.9    3.4
C    -4.0    3.4    3.3
N    -5.3    3.5    2.7
C    -5.5    3.7    1.4
N    -4.6    4.6    0.8
N    -6.5    3.0    0.8
H    -4.2    1.5    1.4
H    -2.5    1.7    1.5
H    -2.6    1.8    4.0
H    -4.3    1.3    3.9
H    -3.3    4.0    2.8
H    -4.0    3.8    4.4
H    -6.0    2.9    3.1
H    -4.8    4.8   -0.2
H    -4.3    5.4    1.3
H    -6.6    3.4   -0.1
N    -4.4   -0.9   -0.1
C    -5.8   -0.6    0.4
H    -4.3   -1.2   -1.1
H    -6.5   -1.0   -0.3
H    -6.0    0.5    0.5
H    -5.9   -1.1    1.4
