          35
 sphere cut out from bulk 
C     0.1    0.1    0.0
C     0.1    0.2    1.6
O     1.1    0.4    2.2
H     0.8   -0.8   -0.2
H     0.6    1.0   -0.4
H    -0.9   -0.1   -0.4
N    -1.1   -0.0    2.1
C    -1.6   -0.1    3.5
C    -2.3    1.2    4.0
O    -3.5    1.0    4.4
H    -1.9   -0.2    1.5
H    -2.3   -0.8    3.6
C    -0.4   -0.5    4.5
C    -1.0   -0.9    5.9
C    -1.2    0.2    6.9
N    -1.5   -0.1    8.2
C    -0.6   -0.9    9.0
N     0.7   -0.5    8.9
N    -1.1   -1.8    9.8
H     0.4    0.2    4.6
H     0.0   -1.4    4.0
H    -0.2   -1.6    6.4
H    -1.9   -1.5    5.8
H    -2.0    0.9    6.5
H    -0.3    0.9    6.9
H    -2.4   -0.5    8.4
H     1.3   -0.9    9.6
H     0.9    0.4    8.7
H    -0.4   -2.1   10.5
N    -1.8    2.4    4.0
C    -0.5    2.9    3.5
H    -2.4    3.1    4.3
H    -0.0    3.6    4.2
H    -0.5    3.3    2.5
H     0.2    2.0    3.4
