          35
 sphere cut out from bulk 
C     1.0   -0.6    0.5
C     0.6   -0.2    1.9
O     1.5    0.1    2.7
H     1.7    0.1    0.1
H     0.1   -0.7   -0.1
H     1.5   -1.6    0.5
N    -0.7   -0.3    2.2
C    -1.3   -0.1    3.6
C    -1.3    1.3    4.2
O    -2.3    1.8    4.6
H    -1.3   -0.5    1.5
H    -2.4   -0.4    3.5
C    -0.7   -1.1    4.6
C    -0.9   -2.6    4.3
C     0.1   -3.5    4.9
N     1.5   -3.4    4.3
C     1.7   -3.7    3.0
N     1.0   -4.8    2.5
N     2.5   -3.1    2.2
H    -1.1   -0.9    5.6
H     0.4   -0.9    4.7
H    -0.9   -2.7    3.2
H    -1.9   -2.9    4.6
H    -0.2   -4.6    4.8
H     0.2   -3.3    6.0
H     1.9   -2.5    4.5
H     1.4   -5.2    1.6
H     0.9   -5.6    3.2
H     2.9   -2.3    2.6
N    -0.1    2.0    4.1
C     0.1    3.3    4.6
H     0.7    1.5    3.7
H     0.4    4.0    3.9
H     0.8    3.3    5.5
H    -0.9    3.7    5.0
