          35
 sphere cut out from bulk 
C     0.6   -1.1    0.5
C     0.3   -0.5    1.9
O     1.1   -0.0    2.6
H     1.3   -2.0    0.7
H     1.1   -0.4   -0.1
H    -0.3   -1.5   -0.0
N    -1.1   -0.5    2.2
C    -1.6   -0.0    3.5
C    -1.0    1.3    4.0
O    -0.9    1.6    5.2
H    -1.7   -0.9    1.6
H    -2.7    0.2    3.3
C    -1.5   -1.1    4.6
C    -0.2   -1.7    4.9
C     0.1   -3.0    4.1
N     1.6   -3.0    3.7
C     2.0   -4.0    2.9
N     1.6   -5.3    3.2
N     2.7   -3.7    1.8
H    -2.3   -1.9    4.4
H    -1.9   -0.6    5.5
H    -0.1   -2.0    6.0
H     0.6   -1.0    4.8
H    -0.5   -3.0    3.2
H    -0.1   -3.9    4.6
H     1.9   -2.1    3.4
H     2.1   -6.0    2.7
H     1.6   -5.5    4.2
H     3.1   -4.5    1.4
N    -0.9    2.3    3.0
C    -0.2    3.5    3.3
H    -0.9    1.9    2.0
H    -0.6    4.3    2.6
H     0.8    3.5    3.2
H    -0.5    3.9    4.3
