          35
 sphere cut out from bulk 
C    -0.3    0.9   -0.1
C    -0.6    0.3    1.3
O     0.3    0.3    2.2
H     0.5    0.4   -0.5
H    -0.1    2.0    0.1
H    -1.2    0.8   -0.8
N    -1.8   -0.2    1.5
C    -2.2   -0.9    2.7
C    -3.4   -1.8    2.4
O    -4.2   -1.5    1.4
H    -2.5   -0.2    0.7
H    -1.4   -1.5    3.0
C    -2.5    0.1    3.8
C    -2.4   -0.4    5.2
C    -1.2   -1.2    5.6
N     0.0   -0.5    5.1
C     1.3   -1.1    5.3
N     2.3   -0.6    4.5
N     1.6   -2.0    6.2
H    -3.5    0.6    3.6
H    -1.8    1.0    3.7
H    -3.3   -1.0    5.5
H    -2.5    0.5    5.9
H    -1.2   -2.2    5.2
H    -1.1   -1.3    6.7
H    -0.0   -0.0    4.2
H     3.1   -1.1    4.5
H     2.0   -0.3    3.6
H     0.8   -2.2    6.8
N    -3.6   -2.8    3.2
C    -4.8   -3.7    3.1
H    -3.0   -3.0    3.9
H    -5.4   -3.3    2.3
H    -5.4   -3.7    4.0
H    -4.5   -4.7    2.9
