          35
 sphere cut out from bulk 
C    -0.7   -0.9    0.3
C     0.1   -0.8    1.6
O     1.1   -1.4    1.9
H    -1.6   -1.5    0.4
H    -0.0   -1.5   -0.4
H    -0.9    0.1   -0.2
N    -0.4    0.1    2.5
C    -1.5    1.1    2.4
C    -2.8    0.5    2.0
O    -3.4    0.9    1.0
H     0.2    0.2    3.3
H    -1.6    1.4    3.5
C    -1.1    2.4    1.6
C    -1.9    3.6    1.9
C    -1.6    4.2    3.3
N    -0.2    4.7    3.5
C     0.2    5.9    3.0
N     1.5    6.1    3.3
N    -0.6    6.6    2.3
H    -1.2    2.1    0.5
H    -0.1    2.6    1.8
H    -3.0    3.4    1.9
H    -1.8    4.4    1.1
H    -1.9    3.6    4.1
H    -2.3    5.1    3.4
H     0.2    4.4    4.3
H     1.9    6.9    2.9
H     2.1    5.3    3.3
H    -0.1    7.4    1.9
N    -3.3   -0.5    2.8
C    -2.8   -1.1    4.0
H    -4.2   -0.9    2.4
H    -3.5   -1.6    4.5
H    -2.4   -0.3    4.7
H    -1.9   -1.8    3.8
