          35
 sphere cut out from bulk 
C    -0.4   -0.4    2.8
C    -0.4    1.1    2.8
O     0.3    1.8    3.6
H    -0.5   -0.8    1.8
H    -1.3   -0.8    3.4
H     0.5   -0.7    3.3
N    -1.2    1.8    1.9
C    -2.4    1.3    1.3
C    -2.4    1.3   -0.2
O    -2.7    0.3   -0.9
H    -1.1    2.8    2.0
H    -2.5    0.2    1.5
C    -3.7    1.9    1.9
C    -3.9    1.6    3.4
C    -3.7    2.8    4.3
N    -2.4    3.5    4.3
C    -2.1    4.5    3.4
N    -0.8    4.6    3.1
N    -2.9    5.4    2.9
H    -4.5    1.5    1.4
H    -3.7    3.0    1.7
H    -3.2    0.8    3.7
H    -4.9    1.2    3.6
H    -3.9    2.5    5.4
H    -4.5    3.6    4.1
H    -1.6    2.9    4.5
H    -0.5    5.5    2.8
H    -0.1    4.1    3.6
H    -3.9    5.3    3.3
N    -2.2    2.5   -0.9
C    -1.7    3.8   -0.3
H    -2.2    2.4   -1.9
H    -1.9    4.6   -1.1
H    -0.7    3.8   -0.0
H    -2.3    4.1    0.5
