          35
 sphere cut out from bulk 
C     0.0    0.0    0.0
C     0.1   -0.4    1.5
O     1.2   -0.7    2.0
H     1.0    0.4   -0.3
H    -0.7    0.8   -0.2
H    -0.2   -0.8   -0.6
N    -1.0   -0.5    2.2
C    -2.4   -0.2    1.8
C    -2.9   -0.9    0.5
O    -3.3   -0.2   -0.4
H    -0.8   -0.8    3.1
H    -3.0   -0.7    2.6
C    -2.7    1.3    1.9
C    -3.0    1.9    3.3
C    -4.4    1.6    3.9
N    -4.7    0.3    4.3
C    -5.2   -0.8    3.5
N    -5.8   -0.4    2.3
N    -5.2   -2.0    3.8
H    -3.6    1.5    1.2
H    -1.9    1.8    1.4
H    -2.9    3.0    3.2
H    -2.2    1.6    4.0
H    -5.2    2.0    3.2
H    -4.5    2.3    4.8
H    -4.2   -0.1    5.1
H    -5.5    0.4    1.8
H    -6.0   -1.2    1.7
H    -4.8   -2.2    4.7
N    -2.8   -2.2    0.5
C    -2.5   -3.2    1.5
H    -3.1   -2.6   -0.4
H    -1.4   -3.1    1.8
H    -2.7   -4.2    1.1
H    -3.2   -3.0    2.4
