          35
 sphere cut out from bulk 
C    -0.8   -0.4   -1.0
C    -0.3    0.3    0.2
O     0.8    0.8    0.3
H     0.1   -0.6   -1.6
H    -1.3    0.4   -1.6
H    -1.4   -1.2   -0.9
N    -1.1    0.4    1.3
C    -2.5   -0.2    1.5
C    -2.6   -1.7    1.3
O    -3.3   -2.2    0.5
H    -0.8    0.9    2.1
H    -2.8    0.1    2.5
C    -3.6    0.5    0.6
C    -3.5    2.0    0.6
C    -3.7    2.7    1.9
N    -3.7    4.2    1.8
C    -4.9    4.8    1.5
N    -4.7    6.2    1.3
N    -6.0    4.1    1.3
H    -4.6    0.2    1.0
H    -3.5    0.1   -0.4
H    -4.3    2.4   -0.1
H    -2.5    2.4    0.1
H    -2.9    2.5    2.6
H    -4.6    2.4    2.4
H    -2.9    4.6    1.5
H    -5.6    6.7    1.2
H    -4.1    6.6    2.0
H    -6.8    4.8    1.2
N    -1.8   -2.4    2.2
C    -0.9   -2.0    3.3
H    -1.9   -3.4    2.0
H     0.0   -1.6    2.9
H    -0.8   -2.8    3.9
H    -1.4   -1.2    3.9
