          35
 sphere cut out from bulk 
C    -0.3    2.0    2.3
C    -0.3    0.5    2.5
O     0.7   -0.0    3.0
H     0.6    2.4    2.6
H    -1.2    2.5    2.9
H    -0.5    2.3    1.2
N    -1.3   -0.2    2.0
C    -2.6    0.3    1.5
C    -3.5    0.6    2.7
O    -3.7   -0.2    3.6
H    -1.3   -1.2    2.3
H    -2.4    1.2    1.0
C    -3.3   -0.7    0.5
C    -3.5   -2.1    1.0
C    -2.4   -3.1    0.5
N    -2.2   -4.3    1.3
C    -1.6   -4.2    2.5
N    -1.6   -5.4    3.2
N    -1.1   -3.0    2.9
H    -2.7   -0.6   -0.4
H    -4.3   -0.2    0.3
H    -4.5   -2.5    0.6
H    -3.5   -2.1    2.1
H    -1.4   -2.5    0.5
H    -2.6   -3.4   -0.6
H    -3.0   -4.9    1.2
H    -1.0   -5.3    4.0
H    -1.4   -6.2    2.6
H    -0.5   -3.1    3.7
N    -4.2    1.8    2.6
C    -5.2    2.2    3.6
H    -4.0    2.4    1.9
H    -6.2    2.4    3.1
H    -4.9    3.2    4.1
H    -5.3    1.4    4.3
