          35
 sphere cut out from bulk 
C    -0.5    0.1   -0.2
C    -0.6   -0.5    1.1
O    -0.3   -1.7    1.3
H     0.6    0.1   -0.5
H    -0.8    1.2   -0.3
H    -1.0   -0.4   -1.0
N    -1.1    0.3    2.1
C    -1.2   -0.1    3.5
C    -2.4   -1.0    3.8
O    -2.3   -1.9    4.7
H    -1.3    1.3    1.9
H    -0.4   -0.8    3.7
C    -1.2    1.1    4.5
C     0.1    1.8    4.5
C     0.1    3.0    5.5
N    -0.1    2.6    6.9
C     0.8    2.5    7.9
N     2.1    2.3    7.4
N     0.6    2.7    9.2
H    -1.5    0.7    5.5
H    -2.0    1.8    4.2
H     0.4    2.2    3.5
H     0.9    1.1    4.8
H    -0.7    3.7    5.2
H     1.1    3.5    5.5
H    -1.1    2.8    7.2
H     2.7    2.1    8.2
H     2.2    1.6    6.7
H    -0.3    3.0    9.4
N    -3.6   -0.9    3.1
C    -4.0    0.1    2.1
H    -4.3   -1.6    3.4
H    -5.1    0.0    2.0
H    -3.6   -0.2    1.1
H    -3.8    1.1    2.4
