          35
 sphere cut out from bulk 
C     0.1   -1.6    1.3
C    -0.4   -0.5    2.2
O     0.3   -0.1    3.2
H     0.1   -2.5    1.9
H     1.2   -1.4    1.1
H    -0.4   -1.7    0.4
N    -1.5    0.1    1.8
C    -2.3    1.1    2.6
C    -1.3    2.1    3.3
O    -1.5    2.3    4.5
H    -2.0   -0.3    1.0
H    -2.8    1.8    1.8
C    -3.4    0.6    3.5
C    -2.9   -0.5    4.5
C    -3.9   -0.8    5.6
N    -4.5    0.4    6.2
C    -4.0    1.1    7.3
N    -2.6    1.3    7.2
N    -4.6    1.5    8.3
H    -4.1    0.1    2.8
H    -3.8    1.4    4.0
H    -1.9   -0.1    5.0
H    -2.6   -1.4    4.0
H    -3.5   -1.5    6.3
H    -4.7   -1.4    5.1
H    -5.5    0.3    6.3
H    -2.3    1.8    7.9
H    -2.3    1.6    6.3
H    -5.6    1.1    8.3
N    -0.5    2.9    2.6
C    -0.1    2.8    1.2
H     0.1    3.5    3.2
H     0.4    3.7    0.9
H    -0.9    2.6    0.6
H     0.7    1.9    1.1
