          35
 sphere cut out from bulk 
C     0.5    0.4    3.0
C     0.6   -1.1    3.5
O     1.5   -1.5    4.1
H    -0.3    0.9    3.4
H     0.5    0.4    1.9
H     1.5    0.8    3.3
N    -0.6   -1.8    3.4
C    -1.8   -1.4    2.7
C    -2.9   -0.8    3.6
O    -3.9   -0.3    3.1
H    -0.5   -2.8    3.7
H    -1.6   -0.7    1.9
C    -2.4   -2.6    2.0
C    -1.6   -3.1    0.8
C    -2.2   -4.3    0.1
N    -1.4   -4.8   -1.0
C    -1.8   -5.9   -1.8
N    -3.1   -5.9   -2.1
N    -0.8   -6.7   -2.2
H    -3.4   -2.3    1.6
H    -2.6   -3.4    2.7
H    -0.6   -3.4    1.1
H    -1.5   -2.3    0.1
H    -3.2   -4.1   -0.3
H    -2.4   -5.2    0.8
H    -0.4   -4.9   -0.8
H    -3.3   -6.6   -2.9
H    -3.6   -5.0   -2.2
H    -1.2   -7.3   -2.9
N    -2.6   -0.7    4.9
C    -3.5   -0.1    5.9
H    -1.7   -1.1    5.2
H    -4.4    0.3    5.3
H    -3.0    0.8    6.4
H    -3.8   -0.8    6.6
