          35
 sphere cut out from bulk 
C     0.1   -0.3   -0.3
C    -0.0    0.4    1.0
O     0.2    1.6    1.1
H    -0.1   -1.4   -0.3
H     1.2   -0.2   -0.7
H    -0.5    0.2   -1.1
N    -0.5   -0.3    2.0
C    -0.6    0.1    3.4
C    -0.5   -1.1    4.3
O    -0.6   -2.2    3.9
H    -0.6   -1.4    1.9
H     0.3    0.8    3.6
C    -1.9    1.0    3.6
C    -3.2    0.3    3.4
C    -3.7   -0.5    4.6
N    -5.0   -1.1    4.3
C    -5.6   -1.9    5.3
N    -5.4   -1.6    6.6
N    -6.4   -2.9    5.0
H    -1.8    1.8    2.9
H    -1.8    1.5    4.6
H    -3.1   -0.4    2.5
H    -4.0    1.0    3.1
H    -3.8    0.2    5.5
H    -3.0   -1.2    4.9
H    -5.1   -1.5    3.4
H    -5.4   -0.6    6.8
H    -6.0   -2.1    7.2
H    -6.4   -3.1    4.0
N    -0.3   -0.8    5.6
C    -0.3   -1.8    6.7
H    -0.2    0.2    5.9
H    -1.3   -1.9    7.2
H     0.5   -1.6    7.4
H    -0.1   -2.8    6.2
