          35
 sphere cut out from bulk 
C     0.7   -0.1    0.2
C     0.1   -0.2    1.6
O     0.3   -1.2    2.3
H     0.1   -0.8   -0.5
H     1.7   -0.4    0.1
H     0.6    0.9   -0.3
N    -0.6    0.9    2.0
C    -1.3    1.0    3.3
C    -0.5    1.2    4.5
O    -0.7    2.2    5.3
H    -0.7    1.7    1.4
H    -1.9    1.9    3.2
C    -2.4   -0.1    3.5
C    -3.6   -0.2    2.6
C    -3.3   -0.7    1.2
N    -4.5   -1.1    0.4
C    -5.1   -2.3    0.6
N    -6.3   -2.3   -0.1
N    -4.8   -3.3    1.4
H    -2.8    0.1    4.5
H    -1.9   -1.1    3.5
H    -4.0    0.8    2.5
H    -4.3   -0.8    3.0
H    -2.6   -1.6    1.2
H    -2.7    0.0    0.6
H    -5.0   -0.3    0.1
H    -6.8   -3.2    0.0
H    -6.3   -2.0   -1.0
H    -4.0   -3.1    1.9
N     0.5    0.3    4.7
C     1.4    0.3    5.8
H     0.6   -0.5    4.0
H     1.3   -0.6    6.5
H     1.2    1.2    6.5
H     2.5    0.4    5.5
