          35
 sphere cut out from bulk 
C     0.0   -0.1    0.2
C     0.1    0.1    1.7
O     1.2    0.2    2.3
H    -0.7    0.5   -0.2
H    -0.2   -1.2   -0.0
H     1.0    0.1   -0.2
N    -1.1    0.1    2.5
C    -2.4    0.1    2.0
C    -2.8   -0.9    1.0
O    -3.3   -0.7   -0.1
H    -0.9    0.2    3.5
H    -3.0   -0.1    2.9
C    -2.9    1.5    1.5
C    -2.6    2.7    2.5
C    -1.2    3.4    2.3
N    -0.9    4.3    3.3
C    -0.3    3.9    4.5
N    -0.5    4.9    5.6
N     0.2    2.8    4.8
H    -4.0    1.5    1.3
H    -2.4    1.8    0.6
H    -2.6    2.3    3.6
H    -3.4    3.4    2.5
H    -1.3    3.9    1.3
H    -0.4    2.7    2.2
H    -1.6    5.1    3.4
H     0.0    4.7    6.4
H    -0.4    5.8    5.3
H     0.3    2.2    4.0
N    -2.6   -2.2    1.4
C    -2.1   -2.8    2.6
H    -2.9   -2.9    0.7
H    -2.5   -3.8    2.7
H    -2.6   -2.2    3.5
H    -1.1   -2.7    2.7
