          35
 sphere cut out from bulk 
C    -3.1    0.8    1.0
C    -2.2    0.3    2.2
O    -1.9    1.1    3.1
H    -3.8   -0.0    0.7
H    -2.5    1.0    0.1
H    -3.6    1.7    1.3
N    -1.8   -1.0    2.1
C    -1.0   -1.6    3.1
C    -0.1   -2.7    2.5
O    -0.5   -3.3    1.5
H    -2.1   -1.6    1.3
H    -0.3   -0.8    3.5
C    -1.7   -2.1    4.4
C    -2.6   -3.3    4.3
C    -3.8   -3.3    3.3
N    -3.5   -3.7    2.0
C    -3.9   -3.0    0.9
N    -3.1   -3.3   -0.3
N    -5.0   -2.3    0.8
H    -2.4   -1.2    4.7
H    -1.0   -2.2    5.2
H    -3.0   -3.5    5.3
H    -2.0   -4.2    4.0
H    -4.3   -2.3    3.3
H    -4.6   -4.0    3.8
H    -2.5   -4.1    1.9
H    -3.4   -2.7   -1.1
H    -2.1   -3.3   -0.1
H    -5.5   -2.3    1.6
N     1.1   -2.9    3.1
C     2.0   -4.0    2.7
H     1.3   -2.3    3.9
H     2.9   -3.6    2.4
H     1.5   -4.6    1.9
H     2.2   -4.7    3.6
