          35
 sphere cut out from bulk 
C    -0.3   -0.6   -0.6
C    -0.0   -0.0    0.8
O     1.1    0.3    1.2
H     0.6   -0.7   -1.1
H    -1.0    0.1   -1.1
H    -0.8   -1.5   -0.5
N    -1.1    0.1    1.7
C    -2.5   -0.1    1.5
C    -3.2    1.2    2.0
O    -2.9    1.8    3.0
H    -0.8    0.6    2.6
H    -2.6   -0.2    0.4
C    -3.0   -1.3    2.2
C    -2.4   -2.6    1.8
C    -2.9   -3.8    2.5
N    -2.4   -5.1    2.1
C    -2.9   -5.7    0.9
N    -2.2   -6.9    0.6
N    -3.9   -5.2    0.3
H    -4.1   -1.4    2.1
H    -2.8   -1.2    3.3
H    -1.3   -2.6    1.9
H    -2.6   -2.8    0.7
H    -4.0   -3.9    2.5
H    -2.6   -3.7    3.6
H    -1.4   -5.3    2.2
H    -2.6   -7.4   -0.1
H    -1.9   -7.5    1.4
H    -4.2   -5.8   -0.4
N    -4.4    1.5    1.3
C    -5.3    2.5    1.7
H    -4.6    0.9    0.5
H    -4.8    3.0    2.5
H    -6.2    2.2    1.9
H    -5.3    3.3    0.9
