          35
 sphere cut out from bulk 
C     0.4   -1.4    0.6
C     1.2   -0.1    0.8
O     2.5   -0.2    0.9
H    -0.5   -1.2    0.0
H     0.1   -1.7    1.6
H     1.0   -2.1    0.2
N     0.6    1.1    0.9
C    -0.8    1.4    0.9
C    -0.9    2.9    0.7
O    -0.0    3.7    0.9
H     1.2    1.9    1.0
H    -1.3    0.9    0.1
C    -1.6    1.0    2.2
C    -1.3    1.8    3.5
C     0.1    1.5    4.1
N     0.3    2.0    5.4
C    -0.2    1.4    6.5
N    -0.0    2.1    7.7
N    -0.9    0.3    6.4
H    -1.4   -0.1    2.4
H    -2.7    1.1    2.0
H    -2.0    1.5    4.2
H    -1.4    2.8    3.3
H     0.9    1.9    3.4
H     0.3    0.4    4.1
H     0.4    3.0    5.5
H    -0.3    1.6    8.5
H     0.9    2.5    7.8
H    -1.1   -0.1    7.3
N    -2.2    3.3    0.2
C    -2.5    4.7    0.0
H    -2.9    2.6    0.0
H    -2.8    4.9   -1.0
H    -1.6    5.3    0.2
H    -3.3    5.0    0.7
