          35
 sphere cut out from bulk 
C     0.4    0.1    0.0
C     0.3   -0.3    1.5
O     1.1   -1.0    2.1
H     1.3    0.8   -0.1
H    -0.5    0.6   -0.4
H     0.6   -0.8   -0.5
N    -0.8    0.2    2.1
C    -1.1   -0.0    3.6
C    -1.0   -1.5    4.1
O    -0.5   -1.7    5.2
H    -1.5    0.8    1.6
H    -0.2    0.5    4.1
C    -2.4    0.7    4.0
C    -2.7    0.7    5.5
C    -3.5   -0.5    5.9
N    -3.9   -0.5    7.3
C    -3.0   -0.8    8.3
N    -3.5   -0.6    9.6
N    -1.8   -1.4    8.2
H    -3.2    0.3    3.4
H    -2.3    1.8    3.6
H    -3.3    1.6    5.7
H    -1.8    0.8    6.1
H    -3.0   -1.4    5.7
H    -4.5   -0.6    5.3
H    -4.5    0.3    7.6
H    -2.9   -1.0   10.3
H    -4.5   -0.9    9.8
H    -1.5   -1.4    7.2
N    -1.6   -2.5    3.4
C    -2.2   -2.5    2.0
H    -1.5   -3.4    3.8
H    -2.9   -3.4    2.0
H    -1.5   -2.5    1.2
H    -2.9   -1.6    1.9
