          35
 sphere cut out from bulk 
C    -5.7   -1.1   -1.5
C    -6.6   -1.0   -0.3
O    -6.9    0.0    0.3
H    -6.2   -0.7   -2.4
H    -5.4   -2.1   -1.7
H    -4.8   -0.5   -1.3
N    -7.2   -2.2    0.1
C    -8.3   -2.3    1.1
C    -9.4   -1.3    0.7
O    -9.9   -1.4   -0.4
H    -7.0   -3.0   -0.5
H    -8.8   -3.2    0.8
C    -7.8   -2.5    2.5
C    -6.5   -1.7    3.0
C    -6.2   -1.9    4.5
N    -5.0   -1.1    4.8
C    -4.5   -1.2    6.1
N    -3.5   -0.3    6.3
N    -5.0   -1.9    7.1
H    -7.5   -3.5    2.7
H    -8.6   -2.3    3.2
H    -6.6   -0.6    2.7
H    -5.7   -2.0    2.4
H    -6.1   -2.9    4.7
H    -7.1   -1.5    5.0
H    -4.9   -0.2    4.4
H    -2.8   -0.3    5.6
H    -3.0   -0.5    7.2
H    -5.8   -2.4    6.9
N    -9.8   -0.3    1.6
C    -9.1    0.4    2.6
H   -10.6    0.2    1.1
H    -9.0   -0.2    3.5
H    -9.8    1.2    2.9
H    -8.2    0.8    2.3
