          35
 sphere cut out from bulk 
C     0.2   -0.1   -0.4
C    -0.2   -0.3    1.1
O     0.3   -1.2    1.7
H     1.3    0.1   -0.5
H    -0.3    0.8   -0.8
H    -0.1   -0.9   -0.9
N    -1.1    0.7    1.6
C    -1.6    0.5    2.9
C    -3.2    0.7    2.8
O    -3.6    1.4    1.9
H    -1.6    1.3    0.9
H    -1.4   -0.5    3.2
C    -1.1    1.6    3.9
C     0.4    1.3    4.2
C     0.9    2.4    5.2
N     0.3    2.4    6.5
C     0.7    1.6    7.5
N     0.0    1.9    8.7
N     1.6    0.7    7.3
H    -1.7    1.5    4.8
H    -1.3    2.6    3.5
H     1.0    1.4    3.3
H     0.6    0.3    4.6
H     0.8    3.4    4.8
H     2.0    2.2    5.3
H    -0.1    3.3    6.8
H     0.2    1.1    9.4
H    -1.0    2.1    8.6
H     1.7    0.1    8.1
N    -3.9    0.0    3.7
C    -5.4    0.1    3.8
H    -3.4   -0.6    4.3
H    -5.8   -0.8    3.6
H    -5.7    0.8    3.0
H    -5.7    0.6    4.7
