          35
 sphere cut out from bulk 
C    -1.9   -0.5   -0.2
C    -1.0   -0.2    1.0
O     0.2   -0.0    0.8
H    -1.7    0.2   -1.0
H    -3.0   -0.6    0.1
H    -1.6   -1.5   -0.6
N    -1.6   -0.1    2.2
C    -1.1    0.1    3.5
C    -1.4    1.5    4.1
O    -2.0    1.6    5.2
H    -2.6   -0.2    2.2
H    -1.7   -0.5    4.2
C     0.4   -0.4    3.8
C     0.8   -0.4    5.2
C     1.4    0.9    5.7
N     1.8    0.9    7.2
C     2.9    0.3    7.6
N     3.0    0.2    9.0
N     3.8   -0.2    6.8
H     1.1    0.2    3.2
H     0.4   -1.4    3.3
H     1.6   -1.2    5.4
H    -0.1   -0.7    5.9
H     0.7    1.8    5.6
H     2.3    1.1    5.2
H     1.0    0.9    7.8
H     3.9   -0.1    9.3
H     2.7    1.1    9.5
H     4.6   -0.5    7.2
N    -0.9    2.7    3.5
C    -0.1    2.8    2.2
H    -1.2    3.5    3.9
H     0.3    1.9    1.9
H     0.6    3.5    2.4
H    -0.8    3.1    1.4
