          35
 sphere cut out from bulk 
C     0.1   -0.5   -0.0
C    -0.1   -0.5    1.5
O     0.7   -1.1    2.2
H     0.2   -1.5   -0.4
H     1.1   -0.0   -0.2
H    -0.7    0.1   -0.5
N    -1.2    0.1    1.9
C    -1.6    0.1    3.4
C    -3.0   -0.6    3.5
O    -4.0    0.0    3.4
H    -1.9    0.5    1.3
H    -0.8   -0.4    3.9
C    -1.7    1.6    3.9
C    -1.5    1.8    5.4
C    -2.5    1.1    6.3
N    -2.0   -0.3    6.5
C    -2.9   -1.2    7.1
N    -2.2   -2.4    7.5
N    -4.1   -1.0    7.2
H    -2.6    2.0    3.5
H    -0.9    2.1    3.3
H    -1.6    2.9    5.5
H    -0.5    1.6    5.7
H    -3.5    1.0    5.9
H    -2.6    1.6    7.2
H    -1.1   -0.4    6.7
H    -2.7   -3.0    8.2
H    -1.2   -2.3    7.7
H    -4.6   -1.8    7.6
N    -2.9   -1.9    3.7
C    -1.8   -2.8    4.0
H    -3.9   -2.3    3.8
H    -2.0   -3.8    3.5
H    -1.6   -3.0    5.0
H    -0.9   -2.4    3.5
