          35
 sphere cut out from bulk 
C     3.3   -1.6    0.3
C     3.0   -0.8    1.6
O     3.8   -0.6    2.5
H     3.6   -2.6    0.6
H     4.2   -1.1   -0.2
H     2.5   -1.6   -0.4
N     1.7   -0.3    1.6
C     1.2    0.6    2.7
C     0.8   -0.3    3.9
O    -0.4   -0.6    4.1
H     1.0   -0.5    0.9
H     2.1    1.1    3.1
C     0.1    1.5    2.3
C    -0.2    2.6    3.3
C    -1.3    3.5    2.9
N    -1.7    4.5    3.9
C    -0.8    5.6    4.2
N    -0.1    6.1    3.1
N    -0.7    6.2    5.3
H    -0.8    1.0    2.0
H     0.5    2.0    1.3
H     0.7    3.2    3.5
H    -0.4    2.1    4.3
H    -2.2    2.9    2.7
H    -1.1    4.0    1.9
H    -2.1    4.2    4.7
H     0.4    6.9    3.3
H    -0.6    6.2    2.2
H    -1.2    5.6    6.1
N     1.8   -0.9    4.6
C     1.6   -1.9    5.7
H     2.7   -0.8    4.2
H     2.2   -1.6    6.5
H     1.8   -2.9    5.3
H     0.5   -1.8    6.0
