          35
 sphere cut out from bulk 
C    -0.3   -0.4   -0.2
C    -0.3   -0.4    1.3
O     0.7   -0.4    2.0
H     0.3   -1.2   -0.6
H     0.3    0.5   -0.6
H    -1.3   -0.4   -0.7
N    -1.5   -0.3    1.9
C    -1.7   -0.3    3.3
C    -3.2   -0.8    3.5
O    -4.1   -0.7    2.7
H    -2.4   -0.3    1.3
H    -1.0   -1.1    3.7
C    -1.5    1.0    4.0
C    -2.6    2.1    3.8
C    -2.6    2.7    2.4
N    -3.8    3.6    2.2
C    -5.0    3.3    1.9
N    -5.2    2.0    1.4
N    -6.1    4.1    1.8
H    -0.5    1.4    3.7
H    -1.4    0.8    5.1
H    -2.4    2.9    4.6
H    -3.6    1.7    4.1
H    -2.7    2.0    1.6
H    -1.7    3.3    2.2
H    -3.7    4.5    2.7
H    -4.7    1.2    1.9
H    -6.2    1.8    1.2
H    -5.8    5.0    2.0
N    -3.4   -1.4    4.7
C    -4.7   -1.8    5.2
H    -2.6   -1.5    5.3
H    -4.7   -2.9    5.3
H    -5.4   -1.6    4.4
H    -5.0   -1.3    6.1
