          35
 sphere cut out from bulk 
C    -0.0    0.5   -0.8
C    -0.0    0.2    0.7
O     0.9    0.3    1.4
H     0.2    1.5   -0.9
H    -1.0    0.2   -1.3
H     0.8   -0.1   -1.2
N    -1.2   -0.3    1.2
C    -1.4   -0.7    2.6
C    -2.5   -1.8    2.6
O    -3.2   -1.9    1.6
H    -2.0   -0.6    0.6
H    -0.4   -1.2    2.9
C    -1.7    0.5    3.5
C    -3.0    1.2    3.3
C    -4.3    0.6    3.8
N    -5.5    1.4    3.7
C    -5.6    2.4    4.7
N    -6.7    3.2    4.4
N    -4.9    2.4    5.8
H    -0.8    1.1    3.4
H    -1.7    0.1    4.6
H    -3.1    1.5    2.2
H    -2.9    2.2    3.8
H    -4.2    0.3    4.8
H    -4.5   -0.3    3.2
H    -5.8    1.7    2.8
H    -7.0    3.8    5.2
H    -7.5    2.8    4.0
H    -5.2    3.1    6.4
N    -2.6   -2.6    3.7
C    -1.8   -2.6    4.9
H    -3.4   -3.3    3.6
H    -1.8   -3.6    5.3
H    -2.2   -2.0    5.7
H    -0.8   -2.3    4.7
