          35
 sphere cut out from bulk 
C    -0.9   -1.1   -0.2
C    -0.7   -0.6    1.2
O     0.2    0.1    1.6
H    -0.1   -1.7   -0.5
H    -1.0   -0.2   -0.8
H    -1.9   -1.7   -0.3
N    -1.6   -1.1    2.1
C    -1.6   -0.8    3.6
C    -1.6   -2.0    4.5
O    -2.5   -2.3    5.2
H    -2.4   -1.7    1.8
H    -0.6   -0.3    3.7
C    -2.7    0.3    4.0
C    -4.2   -0.1    3.9
C    -4.7   -0.5    2.5
N    -6.2   -0.5    2.6
C    -6.9   -0.9    1.5
N    -6.3   -0.7    0.2
N    -8.1   -1.5    1.6
H    -2.5    1.1    3.3
H    -2.4    0.6    5.0
H    -4.7    0.8    4.2
H    -4.3   -0.9    4.6
H    -4.3   -1.4    2.2
H    -4.4    0.3    1.8
H    -6.5   -0.8    3.5
H    -5.9    0.1    0.1
H    -7.0   -0.9   -0.5
H    -8.3   -1.7    2.5
N    -0.5   -2.9    4.4
C     0.7   -2.7    3.5
H    -0.6   -3.7    4.9
H     0.6   -3.2    2.5
H     1.5   -3.2    4.0
H     0.9   -1.7    3.4
