          35
 sphere cut out from bulk 
C    -0.1   -0.2    0.1
C    -0.2   -0.5    1.6
O     0.7   -1.2    2.2
H     0.4   -1.0   -0.4
H     0.6    0.7    0.0
H    -1.0   -0.0   -0.4
N    -1.3   -0.1    2.2
C    -1.6    0.1    3.6
C    -1.0    1.4    4.1
O    -0.1    2.0    3.5
H    -1.9    0.6    1.6
H    -2.7    0.2    3.7
C    -1.1   -1.1    4.5
C     0.2   -1.0    5.2
C     0.7   -2.4    5.6
N     1.9   -2.2    6.4
C     2.6   -3.2    7.0
N     1.8   -4.4    7.3
N     3.8   -3.1    7.4
H    -1.1   -2.0    3.8
H    -1.9   -1.3    5.2
H     0.2   -0.3    6.0
H     0.9   -0.6    4.4
H     0.8   -3.0    4.8
H    -0.1   -2.8    6.3
H     2.6   -1.5    6.1
H     2.4   -5.2    7.6
H     1.1   -4.6    6.6
H     4.2   -3.9    7.9
N    -1.5    1.9    5.3
C    -2.4    1.3    6.2
H    -1.0    2.8    5.6
H    -2.9    2.1    6.8
H    -2.0    0.6    6.9
H    -3.3    0.9    5.7
