          35
 sphere cut out from bulk 
C    -2.1    0.8   -0.5
C    -1.8    1.2    0.9
O    -1.3    2.3    1.2
H    -1.6   -0.2   -0.7
H    -1.7    1.5   -1.1
H    -3.2    0.7   -0.6
N    -2.2    0.3    1.9
C    -2.8   -1.0    1.8
C    -3.8   -1.3    3.0
O    -5.0   -1.4    2.8
H    -2.0    0.7    2.9
H    -3.4   -1.0    0.9
C    -1.7   -2.1    1.6
C    -2.2   -3.4    0.9
C    -3.4   -4.1    1.6
N    -3.2   -4.4    3.0
C    -4.2   -4.8    3.8
N    -5.5   -4.3    3.5
N    -3.9   -5.7    4.8
H    -1.3   -2.4    2.6
H    -0.9   -1.7    1.1
H    -1.3   -4.1    0.9
H    -2.5   -3.2   -0.1
H    -3.6   -5.1    1.0
H    -4.3   -3.5    1.4
H    -2.4   -5.0    3.2
H    -6.2   -4.5    4.2
H    -5.5   -3.3    3.2
H    -4.7   -5.8    5.4
N    -3.2   -1.2    4.2
C    -3.9   -1.6    5.4
H    -2.2   -1.3    4.3
H    -5.0   -1.3    5.2
H    -3.6   -0.9    6.3
H    -3.9   -2.6    5.7
