          35
 sphere cut out from bulk 
C    -0.0   -0.9   -0.1
C     0.3   -0.1    1.1
O     1.4    0.4    1.3
H    -0.8   -0.3   -0.8
H    -0.4   -1.9    0.1
H     0.9   -1.0   -0.7
N    -0.7    0.1    2.0
C    -2.1   -0.2    1.9
C    -2.8    0.7    0.9
O    -2.5    1.9    0.8
H    -0.4    0.8    2.8
H    -2.1   -1.3    1.5
C    -2.8   -0.2    3.3
C    -3.0    1.2    3.9
C    -4.4    1.8    3.6
N    -4.5    3.2    4.0
C    -4.8    4.2    3.0
N    -4.5    3.9    1.7
N    -5.4    5.2    3.5
H    -2.1   -0.8    4.0
H    -3.7   -0.7    3.2
H    -2.2    1.9    3.5
H    -2.8    1.1    5.0
H    -5.1    1.2    4.2
H    -4.6    1.6    2.5
H    -4.8    3.4    4.9
H    -4.6    4.7    1.1
H    -3.7    3.3    1.5
H    -5.5    6.0    2.8
N    -3.9    0.2    0.3
C    -4.7    0.9   -0.6
H    -4.1   -0.8    0.4
H    -5.4    0.3   -1.2
H    -4.1    1.5   -1.3
H    -5.3    1.7   -0.1
