          35
 sphere cut out from bulk 
C    -0.1   -0.3   -0.1
C    -0.1   -0.0    1.4
O     0.9    0.2    2.0
H     0.5    0.5   -0.6
H    -1.1   -0.3   -0.6
H     0.4   -1.2   -0.2
N    -1.3   -0.2    2.1
C    -2.7   -0.1    1.7
C    -3.1   -1.2    0.7
O    -4.0   -1.1   -0.1
H    -1.2    0.1    3.1
H    -3.3   -0.4    2.6
C    -3.3    1.3    1.4
C    -2.7    2.1    0.2
C    -3.1    1.7   -1.2
N    -4.5    1.6   -1.4
C    -5.4    2.7   -1.2
N    -4.9    3.9   -1.7
N    -6.5    2.5   -0.7
H    -3.2    1.9    2.3
H    -4.4    1.2    1.2
H    -1.6    2.1    0.3
H    -3.0    3.1    0.4
H    -2.6    0.8   -1.5
H    -2.6    2.5   -1.9
H    -4.9    0.7   -1.1
H    -5.6    4.6   -1.7
H    -4.3    3.9   -2.5
H    -7.1    3.3   -0.7
N    -2.4   -2.4    0.9
C    -2.6   -3.6    0.1
H    -1.7   -2.4    1.6
H    -2.8   -4.5    0.7
H    -1.8   -3.8   -0.6
H    -3.5   -3.4   -0.6
