          35
 sphere cut out from bulk 
C     1.4   -3.1    0.7
C     0.8   -1.8    1.2
O     1.0   -0.7    0.7
H     2.5   -3.0    0.9
H     1.3   -3.2   -0.4
H     1.0   -4.0    1.2
N    -0.2   -2.0    2.2
C    -0.9   -0.8    2.7
C     0.1    0.1    3.5
O     0.8   -0.3    4.4
H    -0.4   -2.9    2.6
H    -1.2   -0.2    1.8
C    -2.2   -1.1    3.5
C    -2.1   -1.6    4.9
C    -1.5   -2.9    5.2
N    -0.0   -2.9    5.2
C     0.7   -3.9    4.4
N     2.0   -3.7    4.5
N     0.0   -4.8    3.7
H    -2.7   -1.9    2.9
H    -2.8   -0.2    3.4
H    -3.1   -1.6    5.3
H    -1.6   -0.8    5.5
H    -1.9   -3.7    4.5
H    -1.8   -3.2    6.3
H     0.4   -2.0    5.2
H     2.5   -4.0    3.6
H     2.4   -2.8    4.8
H     0.7   -5.4    3.3
N     0.1    1.4    3.2
C    -0.5    2.1    2.0
H     0.7    2.0    3.7
H    -0.1    1.6    1.1
H    -0.2    3.1    2.0
H    -1.6    2.0    2.0
