          35
 sphere cut out from bulk 
C    -0.3    0.6   -0.1
C     0.0    0.1    1.3
O     1.2   -0.1    1.7
H     0.7    0.9   -0.5
H    -1.0    1.4   -0.1
H    -0.7   -0.2   -0.7
N    -1.0   -0.2    2.1
C    -2.4   -0.4    1.8
C    -3.5    0.2    2.6
O    -4.6    0.3    2.1
H    -0.7   -0.6    3.0
H    -2.5    0.0    0.8
C    -2.7   -1.9    1.6
C    -2.2   -2.8    2.8
C    -0.8   -3.4    2.6
N    -0.1   -3.8    3.8
C     0.3   -2.9    4.8
N     0.7   -1.7    4.3
N     0.2   -3.3    6.0
H    -2.2   -2.3    0.7
H    -3.8   -2.0    1.5
H    -2.9   -3.6    3.0
H    -2.2   -2.2    3.7
H    -0.1   -2.6    2.1
H    -0.8   -4.2    1.9
H    -0.5   -4.7    4.2
H     1.1   -1.1    5.1
H     1.1   -1.6    3.5
H     0.7   -2.6    6.7
N    -3.3    0.8    3.9
C    -2.1    0.8    4.7
H    -4.1    1.1    4.2
H    -2.4    1.2    5.7
H    -1.3    1.4    4.3
H    -1.7   -0.2    4.9
