          35
 sphere cut out from bulk 
C     0.2   -0.7    0.4
C    -0.0   -0.2    1.8
O     0.9    0.2    2.5
H    -0.7   -1.0   -0.2
H     0.9   -1.6    0.4
H     0.8    0.1   -0.2
N    -1.3   -0.1    2.2
C    -2.0    0.2    3.5
C    -2.7    1.5    3.5
O    -3.7    1.6    4.2
H    -2.0   -0.5    1.5
H    -2.8   -0.5    3.5
C    -1.1   -0.1    4.7
C    -0.2    1.1    5.2
C     0.6    0.7    6.5
N     1.3   -0.6    6.4
C     2.6   -0.6    5.9
N     2.9    0.3    4.8
N     3.6   -1.4    6.3
H    -0.5   -1.0    4.6
H    -1.8   -0.4    5.5
H    -0.9    1.9    5.5
H     0.4    1.4    4.5
H    -0.1    0.5    7.3
H     1.2    1.5    6.8
H     1.2   -1.2    7.2
H     3.8    0.1    4.5
H     2.2    0.3    4.1
H     3.3   -1.8    7.2
N    -2.2    2.6    2.9
C    -1.0    2.9    2.1
H    -2.9    3.4    3.0
H    -0.2    2.3    2.5
H    -0.8    3.9    2.2
H    -1.1    2.6    1.1
