          35
 sphere cut out from bulk 
C    -0.3    0.2   -0.5
C    -0.1   -0.5    0.8
O     1.0   -1.1    1.0
H     0.5    0.0   -1.2
H    -0.3    1.3   -0.3
H    -1.3   -0.0   -1.0
N    -1.1   -0.5    1.7
C    -2.3    0.2    1.7
C    -2.2    1.8    1.7
O    -2.9    2.4    0.9
H    -0.9   -1.1    2.5
H    -2.8    0.0    0.7
C    -3.2   -0.3    2.8
C    -4.7    0.3    2.8
C    -5.6   -0.2    3.8
N    -5.8   -1.7    3.8
C    -5.1   -2.6    4.6
N    -5.6   -3.9    4.4
N    -4.2   -2.3    5.5
H    -2.8   -0.0    3.8
H    -3.3   -1.4    2.7
H    -5.1    0.1    1.8
H    -4.6    1.4    2.8
H    -6.6    0.3    3.8
H    -5.2    0.1    4.8
H    -6.7   -2.0    3.5
H    -5.0   -4.5    4.9
H    -5.7   -4.2    3.5
H    -4.1   -1.3    5.6
N    -1.3    2.4    2.5
C    -0.3    1.8    3.5
H    -1.3    3.4    2.4
H    -0.8    1.1    4.1
H     0.0    2.6    4.1
H     0.5    1.3    3.0
