          35
 sphere cut out from bulk 
C    -0.9   -1.0    1.8
C    -1.1    0.1    2.9
O    -0.3    0.3    3.7
H    -1.2   -0.8    0.8
H    -1.4   -1.9    2.1
H     0.2   -1.2    1.8
N    -2.4    0.7    2.8
C    -3.4    0.7    1.8
C    -3.9   -0.8    1.6
O    -4.0   -1.2    0.4
H    -2.4    1.4    3.5
H    -4.3    1.2    2.3
C    -3.2    1.4    0.5
C    -2.8    2.9    0.7
C    -2.6    3.6   -0.6
N    -3.7    3.7   -1.5
C    -4.8    4.6   -1.2
N    -5.9    4.4   -2.1
N    -4.8    5.5   -0.3
H    -4.1    1.3   -0.1
H    -2.4    0.9   -0.0
H    -1.9    3.0    1.3
H    -3.6    3.4    1.3
H    -1.8    3.1   -1.1
H    -2.2    4.7   -0.4
H    -4.0    2.9   -1.9
H    -6.5    5.1   -1.9
H    -5.6    4.3   -3.0
H    -4.1    5.5    0.3
N    -4.3   -1.5    2.6
C    -4.4   -1.1    4.0
H    -4.7   -2.5    2.4
H    -3.5   -1.2    4.5
H    -5.1   -1.8    4.5
H    -4.8   -0.1    4.2
