          35
 sphere cut out from bulk 
C    -1.6   -0.2    0.2
C    -0.8   -0.0    1.5
O     0.4   -0.1    1.5
H    -1.5   -1.2   -0.1
H    -1.3    0.5   -0.5
H    -2.7   -0.0    0.4
N    -1.6    0.2    2.6
C    -1.0    0.3    4.0
C    -0.1    1.5    4.4
O    -0.3    2.0    5.5
H    -2.5    0.3    2.5
H    -1.9    0.5    4.6
C    -0.4   -1.1    4.5
C    -1.3   -2.0    5.2
C    -2.0   -1.4    6.5
N    -1.3   -0.5    7.2
C    -0.1   -0.8    7.8
N     0.8    0.3    8.1
N     0.3   -2.0    8.2
H     0.4   -0.8    5.2
H     0.1   -1.5    3.6
H    -0.8   -2.9    5.5
H    -2.1   -2.4    4.5
H    -2.4   -2.2    7.1
H    -3.0   -0.9    6.2
H    -1.3    0.5    6.9
H     1.7    0.0    8.4
H     0.7    1.0    7.4
H    -0.4   -2.7    8.1
N     0.8    1.8    3.5
C     1.8    2.9    3.8
H     0.9    1.2    2.7
H     2.1    3.3    2.9
H     2.7    2.5    4.3
H     1.3    3.6    4.4
