          35
 sphere cut out from bulk 
C    -0.1    0.2    0.2
C    -0.1    0.1    1.7
O     1.0    0.3    2.3
H     0.8   -0.3   -0.2
H    -0.1    1.2   -0.1
H    -1.0   -0.3   -0.2
N    -1.2   -0.1    2.3
C    -1.4    0.1    3.8
C    -0.8    1.4    4.2
O    -1.1    2.4    3.6
H    -2.1   -0.1    1.8
H    -2.5    0.3    3.9
C    -1.1   -1.2    4.6
C     0.2   -1.9    4.4
C     0.4   -3.1    5.2
N    -0.5   -4.2    4.8
C    -0.8   -5.3    5.5
N    -0.4   -5.3    6.9
N    -1.4   -6.3    4.9
H    -1.9   -1.9    4.3
H    -1.3   -1.0    5.6
H     1.1   -1.2    4.6
H     0.4   -2.2    3.3
H     0.2   -2.9    6.3
H     1.5   -3.5    5.2
H    -0.7   -4.3    3.9
H    -0.4   -6.3    7.3
H     0.4   -4.8    7.1
H    -1.6   -7.1    5.5
N     0.0    1.4    5.3
C     0.8    2.6    5.7
H     0.4    0.5    5.6
H     1.0    2.5    6.8
H     0.1    3.4    5.6
H     1.7    2.7    5.2
