          35
 sphere cut out from bulk 
C    -1.0    1.5    2.4
C    -2.3    0.7    2.5
O    -3.1    0.8    3.5
H    -1.2    2.5    1.9
H    -0.2    1.0    1.9
H    -0.7    1.7    3.4
N    -2.7   -0.0    1.4
C    -2.2   -0.1    0.0
C    -0.9   -1.0   -0.1
O     0.0   -0.9    0.7
H    -3.7   -0.4    1.5
H    -3.0   -0.7   -0.5
C    -2.1    1.2   -0.7
C    -3.4    2.0   -0.8
C    -4.5    1.4   -1.6
N    -5.8    1.4   -1.1
C    -6.3    0.5   -0.2
N    -7.6    0.9    0.3
N    -5.6   -0.5    0.2
H    -1.8    1.0   -1.8
H    -1.3    1.8   -0.3
H    -3.2    3.0   -1.1
H    -3.8    2.0    0.3
H    -4.3    0.3   -1.8
H    -4.5    1.8   -2.6
H    -6.2    2.4   -1.0
H    -8.0    0.2    0.9
H    -8.2    1.2   -0.4
H    -6.1   -1.1    0.8
N    -0.9   -1.8   -1.2
C    -1.9   -2.0   -2.2
H     0.0   -2.3   -1.3
H    -2.8   -2.4   -1.8
H    -1.5   -2.8   -2.9
H    -2.1   -1.1   -2.8
