          35
 sphere cut out from bulk 
C    -1.3   -0.8    0.2
C    -0.6   -0.8    1.6
O     0.3   -1.5    1.9
H    -2.3   -1.4    0.3
H    -0.7   -1.4   -0.4
H    -1.5    0.1   -0.2
N    -1.1    0.2    2.5
C    -2.0    1.3    2.3
C    -3.4    0.8    1.8
O    -3.9    1.3    0.8
H    -0.5    0.2    3.4
H    -2.2    1.6    3.4
C    -1.5    2.5    1.5
C    -0.2    3.1    2.1
C     0.4    4.2    1.3
N     1.6    4.8    1.8
C     2.9    4.5    1.4
N     3.0    3.3    0.7
N     3.9    5.3    1.5
H    -2.3    3.2    1.5
H    -1.3    2.2    0.5
H     0.6    2.3    2.2
H    -0.4    3.5    3.2
H    -0.4    5.0    1.2
H     0.6    3.9    0.3
H     1.5    5.7    2.3
H     4.0    3.1    0.5
H     2.5    2.5    1.1
H     3.7    6.2    1.9
N    -4.0   -0.2    2.5
C    -3.6   -0.8    3.7
H    -4.9   -0.4    2.0
H    -4.5   -1.3    4.1
H    -3.2   -0.1    4.4
H    -2.9   -1.6    3.5
