          35
 sphere cut out from bulk 
C     0.5   -0.8    2.2
C    -0.2   -0.8    3.5
O     0.2   -1.6    4.5
H     0.6    0.2    1.8
H    -0.0   -1.4    1.4
H     1.5   -1.2    2.3
N    -1.3   -0.1    3.7
C    -2.0    0.8    2.8
C    -2.3    2.1    3.6
O    -3.4    2.4    4.1
H    -1.8   -0.3    4.6
H    -1.4    1.0    1.9
C    -3.4    0.2    2.4
C    -3.3   -0.8    1.2
C    -3.5   -0.2   -0.2
N    -2.7    0.9   -0.5
C    -1.3    1.0   -0.6
N    -0.8   -0.2   -1.0
N    -0.5    2.0   -0.3
H    -4.0    1.0    2.1
H    -3.9   -0.3    3.2
H    -4.0   -1.6    1.3
H    -2.3   -1.3    1.2
H    -4.5    0.1   -0.3
H    -3.3   -1.0   -0.9
H    -3.1    1.8   -0.2
H    -1.3   -0.8   -1.7
H     0.2   -0.1   -1.2
H    -1.1    2.7    0.0
N    -1.2    3.0    3.6
C     0.2    2.8    3.2
H    -1.4    3.8    4.2
H     0.2    2.4    2.2
H     0.7    2.0    3.8
H     0.7    3.7    3.2
