          35
 sphere cut out from bulk 
C    -0.7    0.1   -0.3
C    -0.3    0.2    1.1
O     0.7    0.8    1.5
H     0.1   -0.5   -0.8
H    -0.7    1.1   -0.8
H    -1.6   -0.4   -0.6
N    -1.2   -0.4    2.0
C    -1.1   -0.5    3.4
C    -1.4    0.8    4.2
O    -2.0    0.8    5.2
H    -2.0   -0.8    1.6
H    -1.9   -1.1    3.8
C     0.2   -1.3    3.8
C     0.8   -1.1    5.2
C     1.4    0.3    5.5
N     2.2    0.9    4.4
C     2.8    2.1    4.5
N     3.1    2.7    3.2
N     3.0    2.6    5.7
H     1.0   -1.0    3.0
H     0.0   -2.3    3.7
H     1.6   -1.8    5.3
H     0.1   -1.3    6.0
H     2.1    0.3    6.3
H     0.7    1.0    5.8
H     1.8    0.7    3.5
H     3.9    3.4    3.3
H     3.2    2.0    2.5
H     3.5    3.5    5.6
N    -0.8    1.9    3.7
C    -0.9    3.2    4.4
H    -0.2    1.9    2.9
H    -1.0    4.0    3.7
H     0.1    3.4    5.0
H    -1.7    3.2    5.1
