          35
 sphere cut out from bulk 
C    -0.5    1.1    0.2
C    -1.0    0.1    1.3
O    -0.2   -0.4    2.1
H    -1.3    1.4   -0.5
H     0.2    0.5   -0.5
H     0.1    1.9    0.6
N    -2.3   -0.0    1.3
C    -3.0   -1.0    2.2
C    -4.0   -1.8    1.4
O    -4.5   -1.2    0.3
H    -2.9    0.2    0.5
H    -2.2   -1.7    2.5
C    -3.6   -0.3    3.4
C    -2.7    0.4    4.3
C    -3.3    1.0    5.6
N    -4.3    2.0    5.4
C    -5.7    1.7    5.1
N    -6.2    0.6    5.8
N    -6.5    2.4    4.3
H    -4.2   -1.1    4.0
H    -4.4    0.3    3.1
H    -2.2    1.2    3.8
H    -1.8   -0.3    4.6
H    -2.5    1.4    6.2
H    -3.8    0.2    6.2
H    -4.0    2.8    4.8
H    -7.2    0.6    5.7
H    -5.9    0.6    6.8
H    -6.0    3.1    3.8
N    -4.4   -3.0    1.8
C    -4.0   -3.7    3.0
H    -5.2   -3.4    1.2
H    -4.1   -4.8    2.8
H    -4.6   -3.5    3.9
H    -2.9   -3.5    3.2
