          35
 sphere cut out from bulk 
C     1.2   -0.5    0.2
C     0.7   -0.4    1.6
O     1.4   -0.3    2.6
H     1.8    0.4   -0.0
H     0.4   -0.6   -0.6
H     1.9   -1.3    0.1
N    -0.7   -0.4    1.8
C    -1.3   -0.5    3.0
C    -2.7   -1.2    2.8
O    -3.1   -1.4    1.6
H    -1.3   -0.7    1.0
H    -0.7   -1.1    3.7
C    -1.4    0.9    3.7
C    -2.2    2.0    3.0
C    -3.8    1.8    3.1
N    -4.5    3.0    2.7
C    -5.8    3.0    2.8
N    -6.4    4.1    2.2
N    -6.5    2.1    3.5
H    -0.4    1.2    3.9
H    -1.8    0.7    4.8
H    -1.9    2.0    2.0
H    -2.0    2.9    3.5
H    -4.1    1.6    4.2
H    -4.1    0.9    2.5
H    -4.1    3.4    1.8
H    -7.4    4.3    2.5
H    -5.9    5.0    2.3
H    -7.5    2.3    3.6
N    -3.4   -1.4    3.9
C    -4.8   -1.8    3.8
H    -3.1   -1.1    4.8
H    -5.1   -2.5    4.7
H    -5.0   -2.4    2.9
H    -5.5   -1.0    3.8
