          35
 sphere cut out from bulk 
C     0.1    0.7    1.7
C    -0.4   -0.1    2.8
O     0.4   -0.7    3.6
H     1.2    0.5    1.5
H     0.1    1.8    1.9
H    -0.4    0.5    0.7
N    -1.7   -0.2    3.0
C    -2.8    0.2    2.2
C    -2.8   -0.5    0.8
O    -2.6   -1.7    0.8
H    -1.9   -0.9    3.8
H    -3.7   -0.2    2.6
C    -3.0    1.8    2.2
C    -4.4    2.2    1.8
C    -4.5    3.8    1.6
N    -3.4    4.4    0.9
C    -2.9    4.2   -0.4
N    -1.9    5.0   -0.8
N    -3.4    3.1   -1.0
H    -2.2    2.2    1.5
H    -2.8    2.1    3.2
H    -5.1    1.9    2.5
H    -4.7    1.7    0.8
H    -4.6    4.2    2.5
H    -5.4    4.0    1.0
H    -2.7    4.9    1.5
H    -2.1    6.0   -0.6
H    -1.6    4.9   -1.7
H    -3.0    3.1   -2.0
N    -2.9    0.2   -0.3
C    -2.9   -0.4   -1.6
H    -3.0    1.2   -0.3
H    -3.3    0.3   -2.4
H    -3.6   -1.3   -1.6
H    -1.9   -0.8   -1.9
