          35
 sphere cut out from bulk 
C    -0.5   -0.1   -0.8
C     0.0   -0.1    0.7
O     1.2   -0.3    0.9
H     0.2    0.4   -1.4
H    -1.5    0.4   -0.8
H    -0.6   -1.1   -1.1
N    -0.8    0.1    1.7
C    -2.3    0.1    1.7
C    -2.7    0.6    3.1
O    -2.0    0.4    4.1
H    -0.4    0.0    2.6
H    -2.7    0.8    0.9
C    -2.9   -1.3    1.4
C    -2.4   -2.4    2.4
C    -2.6   -3.8    1.8
N    -2.2   -4.0    0.4
C    -1.0   -3.7   -0.2
N     0.1   -3.6    0.6
N    -0.8   -3.6   -1.5
H    -2.7   -1.6    0.4
H    -4.0   -1.2    1.5
H    -2.9   -2.4    3.3
H    -1.4   -2.2    2.6
H    -3.6   -4.2    1.9
H    -2.0   -4.5    2.4
H    -3.0   -4.0   -0.3
H     0.9   -3.2    0.1
H    -0.1   -3.2    1.5
H    -1.7   -3.8   -2.0
N    -4.0    1.2    3.2
C    -4.8    1.6    2.1
H    -4.2    1.5    4.1
H    -5.7    2.1    2.6
H    -5.2    0.7    1.5
H    -4.4    2.3    1.4
