          35
 sphere cut out from bulk 
C     0.6   -0.9    1.1
C    -0.1    0.3    1.7
O     0.6    1.3    2.0
H     0.3   -1.8    1.7
H     1.7   -0.8    1.1
H     0.3   -1.1    0.1
N    -1.4    0.3    1.9
C    -2.3   -0.8    1.5
C    -2.5   -0.7   -0.1
O    -2.4    0.3   -0.7
H    -1.8    1.2    2.2
H    -1.9   -1.7    1.8
C    -3.7   -0.6    2.2
C    -4.5    0.7    1.9
C    -5.5    0.5    0.7
N    -6.1    1.8    0.3
C    -5.5    2.9   -0.3
N    -4.4    2.6   -1.0
N    -6.1    4.0   -0.1
H    -3.5   -0.7    3.3
H    -4.3   -1.5    1.9
H    -3.8    1.5    1.7
H    -5.1    0.9    2.8
H    -6.2   -0.2    0.9
H    -4.9    0.1   -0.2
H    -6.9    2.0    0.9
H    -3.8    3.5   -1.2
H    -3.8    1.8   -0.9
H    -5.6    4.8   -0.6
N    -2.8   -1.9   -0.6
C    -3.0   -2.1   -2.0
H    -2.8   -2.8   -0.0
H    -4.1   -2.5   -2.2
H    -2.3   -2.8   -2.5
H    -2.9   -1.1   -2.5
