          35
 sphere cut out from bulk 
C     0.5    0.0    1.1
C    -0.1    0.1    2.5
O     0.7    0.4    3.5
H     1.6    0.1    1.2
H     0.1    0.8    0.5
H     0.2   -0.9    0.7
N    -1.4   -0.0    2.8
C    -2.5   -0.5    1.9
C    -2.4   -2.0    1.7
O    -1.3   -2.6    1.6
H    -1.6    0.0    3.8
H    -3.4   -0.4    2.6
C    -2.8    0.3    0.7
C    -2.5   -0.3   -0.7
C    -3.1    0.5   -1.8
N    -3.2   -0.2   -3.1
C    -4.1   -1.2   -3.3
N    -3.9   -1.9   -4.5
N    -5.0   -1.5   -2.4
H    -3.9    0.6    0.7
H    -2.3    1.3    0.8
H    -2.9   -1.3   -0.7
H    -1.4   -0.4   -0.8
H    -2.6    1.4   -2.0
H    -4.2    0.7   -1.6
H    -2.3   -0.3   -3.6
H    -4.7   -2.5   -4.8
H    -3.6   -1.3   -5.3
H    -5.7   -2.1   -2.8
N    -3.6   -2.7    1.4
C    -4.9   -2.1    1.2
H    -3.4   -3.6    1.2
H    -5.6   -3.0    1.4
H    -5.1   -1.8    0.2
H    -5.1   -1.3    1.9
