          35
 sphere cut out from bulk 
C     0.6   -0.0    0.5
C     0.2   -0.2    2.0
O     1.0   -0.5    2.8
H     1.4    0.7    0.4
H    -0.2    0.3   -0.1
H     1.0   -1.0    0.1
N    -1.1    0.1    2.3
C    -1.6    0.0    3.6
C    -2.0   -1.5    3.9
O    -3.1   -1.9    3.8
H    -1.8    0.3    1.5
H    -0.8    0.3    4.3
C    -2.8    0.9    3.8
C    -3.1    1.4    5.2
C    -3.4    0.3    6.3
N    -3.6    0.8    7.6
C    -2.6    1.1    8.4
N    -3.0    1.4    9.7
N    -1.4    1.0    8.1
H    -3.7    0.4    3.4
H    -2.7    1.8    3.2
H    -3.9    2.1    5.2
H    -2.2    2.0    5.6
H    -2.5   -0.4    6.3
H    -4.3   -0.3    5.9
H    -4.5    0.5    8.0
H    -2.3    1.8   10.3
H    -3.9    2.0    9.8
H    -0.7    1.3    8.8
N    -0.9   -2.2    4.3
C    -1.0   -3.6    4.5
H    -0.0   -1.8    4.2
H    -0.5   -3.9    5.5
H    -0.6   -4.2    3.7
H    -2.0   -3.9    4.6
