          35
 sphere cut out from bulk 
C    -0.0    0.8    0.9
C    -0.2    0.3    2.4
O     0.8    0.4    3.1
H     1.1    1.0    0.8
H    -0.6    1.7    0.7
H    -0.3    0.0    0.2
N    -1.4   -0.1    2.8
C    -2.7   -0.4    2.3
C    -3.1   -1.9    2.4
O    -4.2   -2.3    2.9
H    -1.3   -0.3    3.8
H    -3.4    0.0    3.0
C    -3.0    0.1    0.9
C    -4.5   -0.1    0.5
C    -5.5    1.1    1.0
N    -5.4    1.4    2.5
C    -6.3    0.8    3.4
N    -6.6   -0.5    3.2
N    -6.9    1.5    4.3
H    -2.5   -0.4    0.1
H    -2.8    1.1    0.8
H    -4.9   -1.0    0.9
H    -4.6   -0.1   -0.6
H    -6.5    0.9    0.7
H    -5.2    2.0    0.5
H    -5.2    2.4    2.6
H    -7.2   -0.8    3.9
H    -5.8   -1.1    3.0
H    -6.7    2.5    4.3
N    -2.2   -2.9    2.0
C    -0.9   -2.8    1.4
H    -2.5   -3.8    2.2
H    -0.6   -3.8    1.1
H    -0.1   -2.4    2.1
H    -0.9   -2.1    0.6
