          35
 sphere cut out from bulk 
C    -1.2    1.4   -0.0
C    -1.0    0.8    1.3
O     0.0    0.1    1.6
H    -0.7    0.8   -0.8
H    -0.8    2.4   -0.0
H    -2.3    1.6   -0.3
N    -2.0    1.0    2.2
C    -1.9    0.8    3.7
C    -2.4   -0.6    4.2
O    -2.3   -0.9    5.4
H    -2.8    1.6    2.0
H    -0.8    0.7    3.9
C    -2.4    1.9    4.5
C    -1.7    3.3    4.3
C    -0.3    3.4    5.0
N     0.7    3.9    4.1
C     1.2    3.1    3.0
N     1.7    1.9    3.4
N     1.1    3.5    1.8
H    -2.4    1.6    5.5
H    -3.5    2.0    4.2
H    -2.4    4.1    4.7
H    -1.6    3.5    3.2
H    -0.0    2.4    5.3
H    -0.3    4.0    5.8
H     0.5    4.8    3.7
H     1.8    1.6    4.3
H     1.5    1.1    2.7
H     1.6    2.9    1.1
N    -3.0   -1.4    3.2
C    -3.5   -2.7    3.5
H    -2.9   -1.1    2.3
H    -4.5   -2.8    3.1
H    -3.5   -2.8    4.6
H    -2.8   -3.5    3.0
