          35
 sphere cut out from bulk 
C    -0.8   -1.2    0.6
C    -0.3   -0.7    1.9
O     0.6   -1.1    2.5
H    -0.5   -2.2    0.5
H    -0.2   -0.6   -0.2
H    -1.9   -1.1    0.4
N    -1.1    0.3    2.6
C    -2.1    1.2    2.0
C    -3.5    0.4    1.9
O    -4.4    0.9    1.2
H    -0.6    0.7    3.4
H    -2.3    1.9    2.8
C    -1.8    1.9    0.8
C    -0.6    2.8    0.9
C    -0.1    3.4   -0.5
N     0.2    2.5   -1.5
C     1.3    1.6   -1.3
N     1.3    0.6   -2.3
N     2.1    1.8   -0.4
H    -2.7    2.5    0.5
H    -1.7    1.2   -0.1
H     0.2    2.3    1.3
H    -0.8    3.7    1.6
H     0.8    4.0   -0.3
H    -0.9    4.1   -0.9
H    -0.6    2.0   -2.0
H     2.2    0.1   -2.3
H     1.0    0.9   -3.2
H     2.9    1.2   -0.5
N    -3.6   -0.7    2.7
C    -4.8   -1.5    2.7
H    -2.8   -1.0    3.2
H    -5.2   -1.6    3.8
H    -4.6   -2.5    2.3
H    -5.6   -1.0    2.1
