          35
 sphere cut out from bulk 
C     0.1   -0.3    0.5
C     0.0   -0.1    2.0
O     1.1   -0.0    2.7
H     1.2   -0.4    0.2
H    -0.3    0.5   -0.1
H    -0.4   -1.2    0.1
N    -1.2   -0.1    2.5
C    -2.5   -0.1    1.9
C    -3.3    1.1    2.5
O    -3.2    1.4    3.6
H    -1.2    0.1    3.5
H    -2.4    0.1    0.8
C    -3.3   -1.4    2.1
C    -2.7   -2.6    1.5
C    -3.5   -3.9    1.8
N    -2.9   -5.1    1.3
C    -1.9   -5.7    2.0
N    -1.3   -6.8    1.4
N    -1.6   -5.3    3.2
H    -4.3   -1.2    1.7
H    -3.4   -1.5    3.2
H    -1.7   -2.8    1.9
H    -2.5   -2.5    0.4
H    -4.5   -3.8    1.3
H    -3.6   -4.0    2.8
H    -2.8   -5.2    0.3
H    -0.4   -7.1    1.7
H    -1.4   -6.9    0.4
H    -0.9   -5.9    3.7
N    -4.2    1.7    1.6
C    -4.5    1.5    0.2
H    -4.8    2.5    2.1
H    -3.6    1.7   -0.4
H    -5.3    2.1   -0.1
H    -4.8    0.4    0.0
