          35
 sphere cut out from bulk 
C    -1.0   -1.4   -0.1
C    -0.4   -0.9    1.2
O     0.8   -1.1    1.5
H    -0.9   -2.4   -0.2
H    -0.4   -0.9   -0.9
H    -2.0   -1.1   -0.3
N    -1.3   -0.3    2.0
C    -0.9    0.1    3.4
C    -2.1   -0.3    4.3
O    -3.2   -0.4    3.8
H    -2.3   -0.3    1.8
H    -0.0   -0.5    3.6
C    -0.7    1.6    3.6
C     0.6    2.1    2.8
C     0.9    3.6    3.0
N    -0.1    4.5    2.5
C    -1.2    4.9    3.3
N    -1.0    5.0    4.7
N    -2.4    5.0    2.7
H    -0.5    1.8    4.6
H    -1.6    2.1    3.3
H     0.4    1.9    1.7
H     1.4    1.5    3.0
H     1.8    3.8    2.4
H     1.1    3.8    4.0
H    -0.4    4.4    1.6
H    -1.7    5.5    5.2
H    -0.1    5.5    4.9
H    -3.1    5.4    3.4
N    -1.8   -0.6    5.6
C    -2.8   -0.9    6.6
H    -0.8   -0.5    5.8
H    -3.8   -0.9    6.1
H    -2.8   -0.1    7.4
H    -2.6   -1.9    7.0
