          35
 sphere cut out from bulk 
C    -0.1    0.2   -0.5
C    -0.1    0.4    1.0
O     0.8    1.0    1.6
H     0.8   -0.3   -0.8
H    -0.1    1.2   -1.0
H    -1.0   -0.4   -0.8
N    -1.1   -0.2    1.7
C    -1.4   -0.2    3.1
C    -2.6    0.7    3.5
O    -3.7    0.3    3.7
H    -1.9   -0.6    1.1
H    -1.9   -1.2    3.3
C    -0.2   -0.2    4.1
C    -0.4   -1.0    5.4
C    -1.5   -0.4    6.3
N    -1.5    1.0    6.6
C    -0.3    1.7    7.1
N     0.4    0.9    8.0
N    -0.1    2.9    6.7
H     0.1    0.8    4.2
H     0.6   -0.7    3.5
H     0.5   -1.0    5.9
H    -0.7   -2.0    5.2
H    -1.5   -1.0    7.3
H    -2.5   -0.6    5.9
H    -1.9    1.6    5.9
H    -0.1    0.3    8.6
H     1.1    1.5    8.6
H     0.7    3.3    7.2
N    -2.4    2.1    3.5
C    -1.2    2.9    3.3
H    -3.2    2.6    3.8
H    -0.8    3.2    4.3
H    -1.4    3.8    2.7
H    -0.4    2.3    2.8
