          35
 sphere cut out from bulk 
C    -0.2   -0.5   -0.5
C     0.7    0.1    0.5
O     1.6    0.9    0.2
H    -0.9   -1.3   -0.0
H     0.4   -1.0   -1.2
H    -0.8    0.2   -1.0
N     0.6   -0.2    1.9
C     1.4    0.3    2.9
C     1.6   -0.8    4.0
O     2.6   -1.5    4.0
H    -0.1   -0.9    2.1
H     2.4    0.4    2.5
C     0.9    1.6    3.5
C     1.9    2.3    4.4
C     1.4    3.6    5.0
N     1.0    4.6    4.0
C    -0.2    4.8    3.5
N    -1.3    4.5    4.4
N    -0.5    5.1    2.3
H    -0.1    1.5    3.9
H     0.7    2.3    2.6
H     2.8    2.5    3.9
H     2.1    1.6    5.2
H     2.2    4.0    5.7
H     0.5    3.4    5.6
H     1.8    4.8    3.4
H    -2.2    4.7    4.0
H    -1.2    4.9    5.3
H     0.3    5.1    1.7
N     0.6   -1.0    4.8
C     0.6   -2.0    5.9
H    -0.2   -0.3    4.8
H     1.4   -2.7    5.7
H    -0.4   -2.5    5.9
H     0.8   -1.5    6.9
