          35
 sphere cut out from bulk 
C     0.5   -0.1    0.5
C     0.4   -0.4    2.0
O     1.4   -0.6    2.7
H    -0.4    0.1    0.0
H     1.0   -1.0    0.1
H     1.2    0.7    0.3
N    -0.8   -0.3    2.5
C    -1.1   -0.4    4.0
C    -1.2   -1.9    4.4
O    -2.2   -2.3    4.9
H    -1.6   -0.1    1.9
H    -0.2    0.0    4.5
C    -2.3    0.5    4.4
C    -3.7    0.2    3.7
C    -4.0    0.9    2.5
N    -3.3    0.5    1.3
C    -2.9    1.4    0.2
N    -2.3    2.5    0.7
N    -3.0    1.1   -1.0
H    -2.0    1.5    4.2
H    -2.4    0.3    5.5
H    -3.8   -0.9    3.6
H    -4.4    0.4    4.5
H    -5.1    0.9    2.3
H    -3.8    2.0    2.6
H    -3.8   -0.3    0.9
H    -1.9    3.0   -0.0
H    -1.7    2.4    1.5
H    -3.5    0.3   -1.2
N    -0.0   -2.5    4.3
C     0.1   -3.9    4.6
H     0.8   -2.0    3.9
H    -0.8   -4.3    5.0
H     0.9   -4.1    5.3
H     0.3   -4.5    3.7
