          35
 sphere cut out from bulk 
C     0.6   -0.2    0.7
C     0.5   -0.3    2.2
O     1.5   -0.4    2.9
H     0.3   -1.2    0.2
H     1.6    0.1    0.4
H    -0.2    0.5    0.3
N    -0.8   -0.3    2.8
C    -2.0   -0.5    2.1
C    -3.1   -0.2    3.2
O    -2.8   -0.2    4.4
H    -0.8   -0.4    3.8
H    -2.2    0.1    1.3
C    -2.2   -2.0    1.6
C    -1.3   -3.1    2.2
C    -1.5   -3.4    3.7
N    -0.5   -4.3    4.2
C     0.5   -3.9    5.2
N     0.8   -2.5    5.2
N     1.0   -4.7    6.0
H    -2.1   -2.0    0.5
H    -3.3   -2.3    1.8
H    -0.3   -2.8    2.0
H    -1.4   -4.0    1.6
H    -2.5   -3.8    3.9
H    -1.5   -2.4    4.3
H    -0.7   -5.2    4.3
H     1.0   -2.1    4.3
H     1.6   -2.4    5.8
H     0.6   -5.6    6.0
N    -4.3    0.1    2.7
C    -4.8    0.3    1.4
H    -5.0    0.3    3.5
H    -4.7   -0.6    0.8
H    -4.2    1.1    0.9
H    -5.8    0.6    1.4
