          35
 sphere cut out from bulk 
C     0.1   -0.6    1.9
C    -0.7   -1.0    3.1
O    -0.2   -1.8    3.9
H     1.1   -0.8    2.0
H    -0.1    0.5    1.6
H    -0.2   -1.2    1.0
N    -2.0   -0.5    3.2
C    -2.9   -0.1    2.2
C    -3.1    1.5    2.1
O    -3.7    2.0    1.2
H    -2.4   -1.0    4.0
H    -2.4   -0.3    1.2
C    -4.2   -0.8    2.3
C    -4.3   -2.2    1.8
C    -3.3   -3.2    2.4
N    -3.1   -3.2    3.8
C    -4.1   -3.6    4.8
N    -5.3   -4.0    4.3
N    -3.9   -3.6    6.1
H    -5.0   -0.2    1.7
H    -4.5   -0.7    3.4
H    -4.2   -2.2    0.7
H    -5.3   -2.6    2.0
H    -2.3   -3.0    2.0
H    -3.6   -4.2    2.0
H    -2.2   -3.2    4.2
H    -5.9   -4.4    5.0
H    -5.2   -4.7    3.4
H    -3.0   -3.2    6.3
N    -2.4    2.2    3.1
C    -2.5    3.6    3.2
H    -1.9    1.6    3.8
H    -1.5    4.1    3.1
H    -3.0    3.9    4.2
H    -3.1    4.0    2.4
