          35
 sphere cut out from bulk 
C    -4.3    0.4    0.4
C    -3.1    0.8    1.1
O    -2.2    1.4    0.5
H    -4.1   -0.3   -0.4
H    -4.8    1.2   -0.1
H    -5.1   -0.1    1.0
N    -3.1    0.5    2.4
C    -1.9    0.8    3.2
C    -1.7   -0.5    4.1
O    -2.6   -1.2    4.5
H    -3.8   -0.1    2.8
H    -1.0    0.8    2.5
C    -2.0    2.0    4.1
C    -2.0    3.3    3.4
C    -0.7    3.6    2.6
N     0.5    3.7    3.4
C     1.4    2.7    3.7
N     1.4    1.6    2.8
N     2.1    2.8    4.8
H    -1.1    2.0    4.8
H    -2.9    1.9    4.7
H    -2.1    4.1    4.1
H    -2.8    3.4    2.6
H    -0.8    4.6    2.1
H    -0.6    2.9    1.8
H     0.6    4.4    4.1
H     1.1    1.8    1.9
H     2.3    1.1    2.8
H     2.8    2.0    4.8
N    -0.3   -0.7    4.4
C     0.1   -1.8    5.3
H     0.3   -0.1    4.0
H     0.8   -2.5    4.8
H    -0.8   -2.3    5.6
H     0.6   -1.3    6.2
