          35
 sphere cut out from bulk 
C     0.2    1.7    1.1
C     0.2    0.5    2.1
O     1.3    0.0    2.5
H     1.2    1.9    0.9
H    -0.3    2.5    1.6
H    -0.3    1.5    0.2
N    -0.9   -0.2    2.5
C    -2.4   -0.1    2.2
C    -2.9   -1.4    1.6
O    -3.8   -2.0    2.2
H    -0.7   -0.9    3.1
H    -2.8   -0.1    3.2
C    -2.9    1.1    1.4
C    -4.4    1.2    1.4
C    -4.9    2.4    0.6
N    -6.3    2.6    0.5
C    -7.2    1.7   -0.1
N    -6.7    1.0   -1.2
N    -8.4    1.6    0.4
H    -2.5    1.1    0.4
H    -2.5    2.0    1.9
H    -4.8    0.3    1.0
H    -4.8    1.3    2.4
H    -4.5    2.4   -0.5
H    -4.5    3.4    1.0
H    -6.8    3.0    1.3
H    -7.2    0.2   -1.4
H    -5.7    1.0   -1.3
H    -9.0    1.0   -0.2
N    -2.3   -1.9    0.5
C    -1.2   -1.5   -0.3
H    -2.8   -2.8    0.2
H    -1.2   -2.1   -1.2
H    -0.2   -1.6    0.2
H    -1.3   -0.4   -0.6
