          35
 sphere cut out from bulk 
C    -0.7    1.2   -0.0
C    -0.0    0.1    0.8
O     1.0   -0.4    0.5
H    -1.5    0.8   -0.7
H     0.1    1.7   -0.6
H    -1.2    1.9    0.6
N    -0.7   -0.3    2.0
C    -2.1   -0.3    2.2
C    -2.5    0.2    3.5
O    -3.7    0.2    3.9
H    -0.1   -1.0    2.5
H    -2.5    0.4    1.4
C    -2.7   -1.7    2.0
C    -2.4   -2.3    0.6
C    -1.4   -3.5    0.6
N    -0.1   -3.3    1.2
C     0.1   -3.5    2.6
N    -0.4   -4.7    3.0
N     0.6   -2.6    3.3
H    -3.8   -1.6    2.1
H    -2.3   -2.4    2.8
H    -2.0   -1.6   -0.1
H    -3.3   -2.7    0.1
H    -1.3   -3.9   -0.5
H    -1.9   -4.4    1.1
H     0.4   -2.5    0.9
H    -0.2   -4.9    4.0
H    -0.3   -5.5    2.4
H     0.9   -2.9    4.2
N    -1.5    0.8    4.3
C    -1.7    1.4    5.6
H    -0.6    0.8    3.9
H    -1.5    2.5    5.6
H    -1.1    0.9    6.3
H    -2.8    1.3    5.8
