          35
 sphere cut out from bulk 
C     0.4    0.1    1.1
C    -0.6   -1.0    1.4
O    -0.2   -2.1    1.6
H     0.4    0.9    1.9
H     0.1    0.6    0.2
H     1.4   -0.3    1.0
N    -1.9   -0.6    1.6
C    -2.7    0.5    1.3
C    -2.9    0.8   -0.3
O    -2.0    0.4   -1.0
H    -2.5   -1.5    1.8
H    -3.7    0.3    1.6
C    -2.4    1.9    2.0
C    -1.7    3.0    1.2
C    -1.5    4.3    2.0
N    -2.7    4.8    2.5
C    -3.8    5.3    1.8
N    -4.9    5.6    2.5
N    -3.7    5.6    0.5
H    -1.7    1.6    2.9
H    -3.3    2.3    2.5
H    -2.3    3.2    0.3
H    -0.7    2.6    0.9
H    -1.0    5.0    1.4
H    -0.8    4.1    2.9
H    -3.0    4.5    3.4
H    -5.6    6.1    1.9
H    -4.8    6.0    3.4
H    -2.9    5.3    0.1
N    -4.0    1.4   -0.7
C    -5.1    2.0    0.1
H    -4.0    1.6   -1.7
H    -6.0    2.0   -0.5
H    -4.8    3.1    0.3
H    -5.3    1.4    1.0
