          35
 sphere cut out from bulk 
C     0.3    0.7    2.2
C     0.2   -0.3    1.0
O     1.2   -0.9    0.6
H     1.4    0.7    2.6
H    -0.3    0.3    3.1
H     0.1    1.7    2.0
N    -1.0   -0.4    0.5
C    -2.2    0.3    0.8
C    -3.0   -0.3    2.1
O    -3.9    0.3    2.5
H    -1.0   -1.0   -0.3
H    -2.0    1.3    1.2
C    -3.2    0.4   -0.4
C    -3.8   -0.8   -1.0
C    -4.8   -1.6   -0.2
N    -5.9   -0.7    0.4
C    -6.9   -0.2   -0.4
N    -7.7    0.7    0.3
N    -7.0   -0.5   -1.6
H    -2.6    1.0   -1.1
H    -4.0    1.1   -0.1
H    -3.0   -1.5   -1.3
H    -4.2   -0.5   -2.0
H    -4.4   -2.1    0.6
H    -5.3   -2.3   -0.9
H    -5.6   -0.2    1.2
H    -7.8    0.5    1.3
H    -8.5    1.0   -0.1
H    -7.8   -0.1   -2.0
N    -2.6   -1.5    2.6
C    -1.8   -2.6    2.1
H    -3.2   -1.7    3.4
H    -0.7   -2.4    2.2
H    -2.0   -2.9    1.1
H    -2.0   -3.5    2.8
