          35
 sphere cut out from bulk 
C     0.6   -0.9    2.3
C    -0.1    0.2    3.1
O     0.5    0.8    4.1
H     0.2   -1.9    2.6
H     1.6   -0.8    2.5
H     0.3   -0.7    1.2
N    -1.4    0.5    2.9
C    -2.4   -0.3    2.1
C    -3.5    0.7    1.6
O    -4.6    0.6    1.9
H    -1.8    1.1    3.5
H    -1.8   -0.7    1.2
C    -2.9   -1.5    2.8
C    -3.5   -1.3    4.2
C    -2.8   -2.1    5.3
N    -1.4   -1.6    5.4
C    -0.3   -2.5    5.3
N     0.9   -1.8    5.7
N    -0.5   -3.7    5.0
H    -2.1   -2.3    2.8
H    -3.7   -2.0    2.1
H    -4.6   -1.6    4.2
H    -3.5   -0.2    4.4
H    -2.7   -3.1    5.0
H    -3.3   -2.0    6.2
H    -1.2   -0.8    5.9
H     1.7   -2.4    5.5
H     1.0   -0.9    5.4
H     0.5   -4.2    5.0
N    -3.1    1.6    0.7
C    -1.8    1.9    0.1
H    -3.9    2.2    0.4
H    -1.9    2.6   -0.7
H    -1.3    1.0   -0.2
H    -1.1    2.4    0.9
