          35
 sphere cut out from bulk 
C    -0.4   -1.2   -0.9
C    -0.3   -1.4    0.6
O     0.8   -1.8    1.1
H    -0.7   -0.2   -1.2
H    -1.2   -1.9   -1.3
H     0.6   -1.4   -1.4
N    -1.3   -1.0    1.4
C    -2.7   -0.6    1.1
C    -3.5   -1.7    0.4
O    -3.7   -2.7    1.1
H    -1.1   -1.3    2.4
H    -3.1   -0.5    2.1
C    -2.8    0.9    0.5
C    -4.2    1.5    0.7
C    -4.5    2.0    2.1
N    -5.8    2.6    2.2
C    -6.0    3.9    1.8
N    -7.4    4.2    1.9
N    -5.2    4.8    1.4
H    -2.4    0.9   -0.5
H    -2.0    1.5    1.1
H    -4.9    0.8    0.3
H    -4.2    2.3   -0.0
H    -3.7    2.7    2.4
H    -4.4    1.1    2.8
H    -6.6    2.0    2.2
H    -7.5    5.2    1.7
H    -7.9    3.9    2.7
H    -4.3    4.4    1.3
N    -3.9   -1.7   -0.9
C    -3.9   -0.8   -1.9
H    -4.5   -2.6   -1.1
H    -4.4    0.1   -1.8
H    -4.3   -1.2   -2.8
H    -2.8   -0.5   -2.2
