          35
 sphere cut out from bulk 
C    -0.3    1.0   -0.4
C    -0.2    0.9    1.1
O     0.8    1.4    1.7
H     0.6    1.6   -0.8
H    -1.2    1.6   -0.7
H    -0.3    0.1   -0.9
N    -1.1    0.2    1.8
C    -2.3   -0.4    1.2
C    -3.4    0.7    1.0
O    -3.6    1.6    1.8
H    -1.1    0.2    2.8
H    -2.0   -0.8    0.2
C    -2.9   -1.5    2.0
C    -2.0   -2.7    2.3
C    -1.0   -2.6    3.5
N    -1.6   -2.4    4.8
C    -1.6   -1.1    5.3
N    -2.1   -1.1    6.7
N    -1.2   -0.1    4.7
H    -3.9   -1.8    1.5
H    -3.3   -1.0    3.0
H    -1.5   -2.9    1.4
H    -2.7   -3.6    2.5
H    -0.3   -1.8    3.3
H    -0.5   -3.5    3.5
H    -1.6   -3.1    5.4
H    -2.3   -0.2    7.0
H    -2.9   -1.8    6.8
H    -1.4    0.8    5.2
N    -4.2    0.6   -0.2
C    -4.0   -0.3   -1.3
H    -4.9    1.3   -0.3
H    -4.8   -0.1   -2.0
H    -4.1   -1.4   -1.0
H    -3.0   -0.2   -1.8
