          35
 sphere cut out from bulk 
C     0.1    1.3    0.6
C     0.3   -0.2    1.0
O     1.4   -0.6    1.2
H    -0.3    1.9    1.3
H    -0.5    1.4   -0.3
H     1.1    1.7    0.3
N    -0.8   -0.9    1.1
C    -2.2   -0.5    0.9
C    -2.7    0.5    2.0
O    -3.4    1.4    1.6
H    -0.6   -1.9    1.4
H    -2.3    0.0   -0.0
C    -3.1   -1.8    0.9
C    -4.5   -1.5    0.6
C    -5.5   -2.7    0.5
N    -5.1   -3.6   -0.6
C    -4.3   -4.8   -0.3
N    -3.9   -5.4   -1.5
N    -3.8   -5.2    0.8
H    -3.0   -2.3    1.9
H    -2.7   -2.5    0.1
H    -4.6   -0.9   -0.4
H    -5.0   -0.8    1.4
H    -6.5   -2.4    0.3
H    -5.5   -3.2    1.4
H    -5.1   -3.3   -1.5
H    -3.5   -6.3   -1.4
H    -4.7   -5.5   -2.2
H    -4.0   -4.6    1.6
N    -2.3    0.3    3.3
C    -1.5   -0.7    4.0
H    -2.7    1.1    3.9
H    -1.7   -0.6    5.0
H    -0.5   -0.6    3.8
H    -1.8   -1.7    3.7
