          35
 sphere cut out from bulk 
C     0.1    0.8   -0.1
C    -0.0    0.2    1.3
O     0.9   -0.4    1.8
H     0.8    1.6   -0.1
H    -0.9    1.2   -0.5
H     0.4   -0.0   -0.8
N    -1.2    0.5    1.9
C    -1.4    0.1    3.4
C    -1.2   -1.3    3.8
O    -0.7   -1.6    4.9
H    -1.9    1.0    1.5
H    -0.7    0.7    4.0
C    -2.8    0.6    3.8
C    -3.1    0.5    5.3
C    -2.7    1.7    6.1
N    -1.3    2.1    5.9
C    -0.3    1.7    6.8
N    -0.3    0.3    7.1
N     0.5    2.6    7.3
H    -3.6   -0.0    3.2
H    -3.0    1.6    3.5
H    -4.2    0.4    5.4
H    -2.7   -0.4    5.7
H    -2.9    1.5    7.2
H    -3.3    2.6    5.8
H    -1.2    3.1    5.8
H     0.5    0.0    7.7
H    -0.5   -0.3    6.3
H     1.3    2.1    7.8
N    -1.6   -2.4    3.0
C    -2.1   -2.4    1.6
H    -1.3   -3.2    3.4
H    -2.6   -3.3    1.5
H    -1.4   -2.2    0.8
H    -2.9   -1.6    1.5
