          35
 sphere cut out from bulk 
C    -2.0   -0.7    4.0
C    -0.7   -0.7    3.2
O    -0.4   -1.6    2.3
H    -2.1   -1.7    4.5
H    -2.8   -0.7    3.2
H    -2.1    0.1    4.7
N     0.2    0.3    3.5
C     1.5    0.5    2.8
C     2.6   -0.4    3.5
O     3.5    0.1    4.1
H    -0.0    0.9    4.3
H     1.3    0.1    1.8
C     1.9    1.9    2.8
C     1.0    2.8    2.0
C     1.2    4.3    2.2
N     0.8    4.8    3.6
C    -0.4    5.3    3.9
N    -1.5    5.1    3.0
N    -0.7    6.0    5.0
H     2.9    2.0    2.5
H     1.8    2.3    3.9
H    -0.1    2.6    2.1
H     1.2    2.6    0.9
H     0.6    4.9    1.5
H     2.2    4.6    2.1
H     1.5    5.0    4.2
H    -2.4    5.4    3.4
H    -1.5    4.2    2.5
H     0.1    6.2    5.5
N     2.4   -1.7    3.2
C     3.2   -2.8    3.8
H     1.6   -2.0    2.7
H     2.7   -3.4    4.5
H     4.1   -2.3    4.2
H     3.6   -3.5    3.0
