          35
 sphere cut out from bulk 
C     0.7   -2.1    0.9
C     0.7   -0.7    1.4
O     1.6    0.1    1.4
H     0.4   -2.9    1.6
H     1.7   -2.3    0.6
H     0.0   -2.2    0.0
N    -0.5   -0.3    2.0
C    -1.7   -1.1    2.3
C    -2.5   -1.6    1.1
O    -3.2   -2.5    1.2
H    -0.4    0.6    2.5
H    -1.4   -2.0    2.8
C    -2.7   -0.3    3.3
C    -3.5    0.8    2.6
C    -2.8    2.1    2.3
N    -3.5    2.9    1.3
C    -3.4    2.7   -0.1
N    -2.1    2.3   -0.5
N    -4.3    2.7   -1.0
H    -2.1    0.1    4.1
H    -3.4   -1.1    3.7
H    -4.3    1.1    3.3
H    -4.0    0.4    1.7
H    -1.8    1.9    1.8
H    -2.6    2.7    3.2
H    -4.5    3.1    1.5
H    -2.1    2.3   -1.5
H    -1.4    2.9   -0.1
H    -5.3    2.9   -0.6
N    -2.4   -0.8   -0.0
C    -3.2   -1.0   -1.2
H    -1.9    0.1    0.0
H    -2.6   -1.3   -2.1
H    -3.8   -0.1   -1.5
H    -3.9   -1.9   -1.0
