          35
 sphere cut out from bulk 
C     0.3   -0.4    1.5
C    -0.1   -1.0    2.9
O     0.8   -1.5    3.6
H     1.3   -0.5    1.4
H     0.0    0.7    1.5
H    -0.3   -0.9    0.7
N    -1.4   -1.1    3.2
C    -2.5   -0.5    2.6
C    -3.3    0.3    3.6
O    -3.5   -0.1    4.8
H    -1.6   -1.4    4.2
H    -2.2    0.2    1.8
C    -3.5   -1.6    2.0
C    -2.9   -2.4    0.9
C    -3.7   -3.6    0.5
N    -3.8   -4.6    1.6
C    -2.7   -5.5    1.7
N    -3.0   -6.5    2.7
N    -1.7   -5.4    0.9
H    -4.4   -1.1    1.7
H    -3.8   -2.2    2.8
H    -1.9   -2.7    1.1
H    -2.8   -1.7   -0.0
H    -3.3   -4.0   -0.4
H    -4.8   -3.3    0.3
H    -4.7   -5.0    1.8
H    -2.1   -7.0    2.9
H    -3.4   -6.1    3.5
H    -1.0   -6.1    1.2
N    -3.8    1.5    3.2
C    -4.7    2.4    4.0
H    -3.6    1.8    2.2
H    -4.7    1.9    5.0
H    -5.7    2.5    3.6
H    -4.2    3.4    4.1
