          35
 sphere cut out from bulk 
C    -1.2   -0.1    0.4
C    -0.8    0.1    1.8
O     0.3    0.6    2.1
H    -1.3    0.9   -0.1
H    -2.2   -0.6    0.3
H    -0.4   -0.7   -0.1
N    -1.8   -0.2    2.7
C    -1.6    0.1    4.2
C    -0.8   -1.0    4.9
O    -1.3   -1.7    5.8
H    -2.7   -0.6    2.4
H    -1.0    1.0    4.2
C    -3.0    0.3    4.8
C    -4.0   -0.9    4.7
C    -5.4   -0.5    4.3
N    -5.5    0.3    3.1
C    -5.0   -0.0    1.9
N    -5.0    1.1    1.0
N    -4.6   -1.2    1.5
H    -3.4    1.2    4.3
H    -2.8    0.6    5.9
H    -4.0   -1.4    5.7
H    -3.6   -1.6    4.0
H    -5.9    0.0    5.1
H    -6.0   -1.4    4.2
H    -5.6    1.3    3.3
H    -4.8    0.7    0.1
H    -5.7    1.7    1.1
H    -4.7   -1.9    2.3
N     0.5   -1.1    4.4
C     1.4   -2.1    5.0
H     0.7   -0.5    3.6
H     2.3   -1.6    5.3
H     1.7   -2.8    4.2
H     0.9   -2.6    5.8
