          35
 sphere cut out from bulk 
C    -0.3   -0.9    0.1
C    -0.4   -0.9    1.6
O     0.4   -1.5    2.3
H    -1.1   -0.4   -0.5
H    -0.4   -2.0   -0.2
H     0.7   -0.6   -0.3
N    -1.4   -0.0    2.1
C    -1.6    0.3    3.5
C    -0.7    1.6    3.9
O    -1.2    2.7    3.6
H    -1.8    0.5    1.4
H    -2.6    0.8    3.4
C    -1.7   -0.9    4.4
C    -2.1   -0.5    5.8
C    -2.2   -1.7    6.8
N    -1.0   -2.4    7.0
C     0.0   -1.9    7.8
N     1.2   -2.6    7.7
N    -0.1   -0.8    8.4
H    -0.8   -1.4    4.4
H    -2.5   -1.6    4.0
H    -3.1    0.0    5.8
H    -1.4    0.3    6.2
H    -3.0   -2.4    6.4
H    -2.5   -1.3    7.8
H    -0.7   -3.0    6.2
H     1.9   -2.4    8.4
H     1.1   -3.7    7.7
H     0.7   -0.6    9.1
N     0.5    1.4    4.4
C     1.2    0.2    4.8
H     0.9    2.3    4.6
H     1.0   -0.1    5.9
H     2.3    0.5    4.9
H     1.1   -0.6    4.1
