          35
 sphere cut out from bulk 
C     0.5   -0.6    0.5
C    -0.2   -0.9    1.9
O     0.5   -1.0    2.9
H     1.4   -0.2    0.7
H    -0.1    0.1   -0.1
H     0.6   -1.6   -0.0
N    -1.6   -1.1    1.9
C    -2.6   -1.0    0.9
C    -2.2   -1.8   -0.4
O    -2.1   -1.2   -1.5
H    -1.9   -1.3    2.9
H    -3.4   -1.5    1.3
C    -3.0    0.5    0.6
C    -4.2    0.7   -0.3
C    -5.4   -0.1   -0.0
N    -5.9   -0.0    1.4
C    -5.8   -1.1    2.2
N    -5.8   -0.7    3.6
N    -5.6   -2.3    2.0
H    -2.1    1.0    0.1
H    -3.1    0.9    1.6
H    -3.9    0.5   -1.4
H    -4.4    1.8   -0.3
H    -5.3   -1.2   -0.3
H    -6.2    0.2   -0.7
H    -5.8    0.9    1.8
H    -6.0   -1.4    4.2
H    -6.5    0.1    3.8
H    -5.5   -2.5    1.0
N    -2.1   -3.1   -0.2
C    -2.3   -3.9    1.0
H    -1.8   -3.6   -1.1
H    -3.1   -3.6    1.6
H    -1.4   -3.9    1.6
H    -2.4   -5.0    0.7
