          35
 sphere cut out from bulk 
C     0.4   -0.9    2.3
C    -0.5   -0.9    3.6
O    -0.1   -1.1    4.7
H     0.1   -0.2    1.6
H     0.4   -1.9    1.9
H     1.4   -0.7    2.6
N    -1.9   -0.7    3.4
C    -2.5    0.1    2.3
C    -2.4   -0.7    0.9
O    -2.4   -0.1   -0.1
H    -2.3   -0.6    4.3
H    -3.6    0.0    2.6
C    -2.2    1.6    2.2
C    -2.5    2.3    3.5
C    -1.3    2.4    4.5
N    -1.7    2.6    5.9
C    -2.5    1.7    6.7
N    -2.2    0.4    6.4
N    -3.3    2.2    7.5
H    -2.7    1.9    1.4
H    -1.1    1.7    1.9
H    -3.4    1.9    4.0
H    -2.8    3.4    3.3
H    -0.6    3.1    4.2
H    -0.8    1.4    4.5
H    -2.1    3.6    6.1
H    -2.6   -0.3    7.1
H    -1.2    0.1    6.1
H    -3.7    1.4    8.1
N    -2.5   -2.0    1.0
C    -2.4   -2.9   -0.1
H    -2.5   -2.4    2.0
H    -3.3   -3.6   -0.1
H    -2.5   -2.3   -1.0
H    -1.5   -3.5   -0.1
