          35
 sphere cut out from bulk 
C    -0.3   -2.4   -0.0
C     0.2   -1.3    0.9
O     1.4   -1.2    1.2
H    -0.3   -2.0   -1.1
H    -1.3   -2.8    0.2
H     0.4   -3.2   -0.0
N    -0.8   -0.5    1.5
C    -2.2   -0.3    1.2
C    -3.0   -1.6    1.7
O    -4.1   -1.9    1.1
H    -0.3    0.3    2.0
H    -2.5    0.5    1.9
C    -2.5    0.1   -0.3
C    -3.5    1.2   -0.4
C    -4.9    1.0    0.0
N    -5.7    2.1   -0.1
C    -7.0    2.3    0.4
N    -7.4    1.3    1.3
N    -7.8    3.3    0.1
H    -2.9   -0.8   -0.8
H    -1.6    0.3   -0.7
H    -3.5    1.6   -1.4
H    -3.1    2.1    0.2
H    -4.9    0.7    1.1
H    -5.3    0.1   -0.6
H    -5.6    2.7   -1.0
H    -8.4    1.4    1.6
H    -7.1    0.3    1.1
H    -7.4    4.0   -0.4
N    -2.5   -2.2    2.7
C    -3.1   -3.4    3.3
H    -1.6   -1.9    3.1
H    -4.1   -3.5    2.8
H    -3.3   -3.2    4.4
H    -2.5   -4.3    3.2
