          35
 sphere cut out from bulk 
C     0.2    1.0    2.3
C    -0.1   -0.1    3.3
O     0.5   -0.3    4.4
H    -0.6    1.6    2.2
H     0.5    0.5    1.4
H     1.1    1.5    2.8
N    -1.1   -1.0    3.0
C    -2.1   -0.8    1.9
C    -3.1    0.3    2.1
O    -3.5    1.0    1.1
H    -1.3   -1.7    3.7
H    -1.6   -0.5    1.0
C    -2.8   -2.1    1.6
C    -1.9   -3.2    1.0
C    -1.4   -3.0   -0.4
N    -0.4   -3.8   -0.8
C     1.0   -3.7   -0.4
N     1.8   -4.7   -0.9
N     1.5   -2.8    0.3
H    -3.6   -1.9    0.9
H    -3.3   -2.5    2.5
H    -2.5   -4.2    1.0
H    -1.1   -3.4    1.7
H    -1.0   -1.9   -0.5
H    -2.2   -3.0   -1.1
H    -0.6   -4.8   -1.0
H     2.8   -4.5   -0.7
H     1.6   -5.0   -1.9
H     0.8   -2.2    0.7
N    -3.7    0.6    3.3
C    -3.5   -0.1    4.6
H    -4.3    1.4    3.3
H    -3.6   -1.2    4.5
H    -4.3    0.3    5.3
H    -2.5    0.1    5.0
