          35
 sphere cut out from bulk 
C     0.2    0.8    1.0
C    -0.1    0.5    2.5
O     0.8    0.6    3.3
H     0.1    1.9    0.8
H    -0.5    0.3    0.3
H     1.2    0.5    0.8
N    -1.3    0.2    2.9
C    -2.6    0.3    2.2
C    -2.9   -0.7    1.1
O    -3.8   -0.5    0.2
H    -1.4    0.0    3.9
H    -3.4    0.1    3.0
C    -2.9    1.8    1.6
C    -2.5    3.0    2.5
C    -3.3    3.3    3.7
N    -3.5    2.2    4.7
C    -2.4    1.6    5.4
N    -1.3    2.3    5.6
N    -2.5    0.4    5.8
H    -4.0    1.8    1.4
H    -2.4    1.9    0.6
H    -2.5    3.9    1.9
H    -1.4    2.8    2.8
H    -4.3    3.6    3.4
H    -2.9    4.2    4.2
H    -4.3    1.6    4.6
H    -1.1    3.0    4.9
H    -0.5    1.8    5.8
H    -3.4   -0.0    5.7
N    -2.2   -1.9    1.2
C    -2.4   -3.0    0.3
H    -1.5   -1.9    2.0
H    -1.4   -3.2   -0.2
H    -3.1   -2.8   -0.4
H    -2.7   -3.9    0.9
