          35
 sphere cut out from bulk 
C     0.1    0.3    1.3
C    -0.5    0.0    2.7
O     0.2   -0.3    3.7
H    -0.1   -0.5    0.6
H     1.2    0.3    1.5
H    -0.2    1.3    0.9
N    -1.9    0.1    2.8
C    -2.9    0.3    1.7
C    -2.8   -0.8    0.7
O    -2.9   -2.0    1.1
H    -2.2   -0.2    3.7
H    -3.8    0.1    2.2
C    -3.0    1.8    1.3
C    -4.4    2.2    0.8
C    -5.3    2.4    2.0
N    -6.7    2.0    1.7
C    -7.1    0.7    1.7
N    -8.4    0.5    1.3
N    -6.2   -0.2    2.1
H    -2.2    2.1    0.6
H    -2.7    2.4    2.2
H    -4.8    1.3    0.2
H    -4.3    3.0    0.2
H    -5.3    3.5    2.3
H    -5.0    1.8    2.9
H    -7.2    2.6    1.0
H    -8.7   -0.5    1.4
H    -9.1    1.2    1.6
H    -6.6   -1.1    2.2
N    -2.7   -0.6   -0.7
C    -2.4    0.6   -1.5
H    -2.8   -1.5   -1.2
H    -3.1    1.3   -1.4
H    -2.3    0.2   -2.5
H    -1.4    1.0   -1.2
