          35
 sphere cut out from bulk 
C     0.4   -1.0    1.2
C    -0.2    0.1    2.0
O     0.5    1.1    2.3
H     0.3   -0.8    0.1
H    -0.1   -2.0    1.4
H     1.4   -1.0    1.4
N    -1.5    0.1    2.4
C    -2.6   -0.9    1.9
C    -2.4   -2.3    2.5
O    -3.0   -3.3    2.0
H    -1.9    0.9    2.8
H    -3.5   -0.5    2.4
C    -2.9   -0.9    0.4
C    -3.2    0.4   -0.2
C    -3.5    0.3   -1.7
N    -3.7    1.7   -2.2
C    -4.3    1.8   -3.5
N    -4.3    3.1   -3.9
N    -4.7    0.8   -4.1
H    -3.7   -1.6    0.3
H    -2.0   -1.4   -0.1
H    -2.3    1.1    0.0
H    -4.0    0.9    0.4
H    -4.4   -0.3   -1.9
H    -2.6   -0.1   -2.2
H    -3.0    2.4   -2.0
H    -4.9    3.3   -4.7
H    -4.6    3.8   -3.2
H    -5.2    1.1   -5.0
N    -1.7   -2.4    3.7
C    -1.4   -3.6    4.4
H    -1.2   -1.5    4.0
H    -2.0   -4.4    3.9
H    -1.8   -3.5    5.4
H    -0.4   -3.9    4.4
