          35
 sphere cut out from bulk 
C    -0.5   -1.6    1.5
C     0.2   -1.0    2.8
O     1.1   -1.6    3.3
H     0.1   -2.6    1.3
H    -0.3   -1.0    0.6
H    -1.5   -1.8    1.6
N    -0.4    0.1    3.2
C    -1.5    0.8    2.7
C    -1.3    2.4    2.9
O    -1.1    2.8    4.0
H     0.1    0.5    4.1
H    -1.7    0.6    1.6
C    -2.8    0.5    3.5
C    -4.1    0.9    2.8
C    -4.5    0.0    1.6
N    -5.8    0.4    1.0
C    -5.7    1.4   -0.0
N    -7.0    1.8   -0.4
N    -4.6    1.9   -0.5
H    -2.7    0.9    4.5
H    -2.8   -0.7    3.6
H    -4.0    2.0    2.5
H    -4.9    0.9    3.6
H    -4.7   -1.0    2.0
H    -3.7    0.0    0.9
H    -6.6    0.4    1.5
H    -7.1    2.4   -1.2
H    -7.7    1.0   -0.5
H    -4.8    2.5   -1.2
N    -1.2    3.1    1.8
C    -1.4    2.7    0.4
H    -1.0    4.1    2.0
H    -1.3    3.6   -0.2
H    -2.4    2.3    0.2
H    -0.6    2.0    0.1
