          35
 sphere cut out from bulk 
C     0.0   -0.1   -0.0
C     0.2    0.0    1.5
O     1.3    0.0    2.0
H    -0.3    0.9   -0.4
H    -0.7   -0.8   -0.3
H     1.0   -0.3   -0.5
N    -0.9    0.2    2.3
C    -2.3    0.1    2.0
C    -2.8   -1.3    1.8
O    -2.2   -2.1    1.1
H    -0.6    0.2    3.3
H    -2.8    0.5    3.0
C    -2.9    1.1    1.0
C    -2.5    2.5    1.1
C    -3.0    3.2    2.4
N    -2.6    4.6    2.4
C    -3.1    5.6    3.2
N    -4.2    5.1    4.0
N    -2.8    6.8    3.3
H    -4.0    1.0    1.0
H    -2.6    0.7   -0.0
H    -2.8    3.1    0.2
H    -1.4    2.6    1.1
H    -2.5    2.7    3.3
H    -4.0    3.1    2.4
H    -1.7    4.9    2.0
H    -4.4    5.9    4.7
H    -4.0    4.3    4.5
H    -2.1    7.1    2.5
N    -4.1   -1.6    2.3
C    -4.9   -0.9    3.1
H    -4.3   -2.6    2.0
H    -4.5   -0.7    4.1
H    -5.8   -1.4    3.3
H    -5.2    0.1    2.7
