          35
 sphere cut out from bulk 
C     0.5    0.8    1.3
C    -0.1    0.1    2.5
O     0.6   -0.1    3.5
H     1.3    0.2    0.8
H     1.0    1.7    1.7
H    -0.2    1.1    0.6
N    -1.3   -0.4    2.3
C    -2.0   -1.4    3.1
C    -2.1   -0.9    4.6
O    -2.1   -1.8    5.5
H    -1.7   -0.3    1.3
H    -3.1   -1.3    2.8
C    -1.6   -2.8    3.0
C    -0.2   -3.2    3.3
C     0.1   -4.7    3.2
N    -0.0   -5.1    1.8
C     0.1   -6.4    1.3
N    -0.3   -7.4    2.2
N     0.4   -6.6    0.1
H    -1.9   -3.1    1.9
H    -2.3   -3.4    3.6
H     0.0   -2.9    4.3
H     0.5   -2.7    2.7
H    -0.7   -5.3    3.8
H     1.1   -5.0    3.6
H     0.4   -4.5    1.1
H    -0.0   -8.3    2.0
H    -0.2   -7.2    3.2
H     0.3   -7.6   -0.2
N    -2.2    0.4    4.8
C    -2.1    1.0    6.2
H    -2.0    1.0    4.1
H    -2.8    1.9    6.2
H    -1.1    1.2    6.5
H    -2.5    0.2    6.9
