          35
 sphere cut out from bulk 
C     0.1   -0.8    1.3
C    -0.4   -1.0    2.7
O     0.4   -1.3    3.6
H     0.7   -1.6    0.9
H     0.8    0.1    1.3
H    -0.7   -0.6    0.6
N    -1.8   -1.0    2.9
C    -2.4   -1.2    4.2
C    -2.6   -2.7    4.5
O    -3.7   -3.2    4.5
H    -2.4   -0.9    2.1
H    -1.7   -0.8    4.9
C    -3.7   -0.4    4.3
C    -3.5    1.1    4.2
C    -4.9    1.9    4.3
N    -5.6    1.7    5.5
C    -5.3    2.4    6.7
N    -6.0    1.9    7.8
N    -4.4    3.3    6.8
H    -4.2   -0.7    5.2
H    -4.4   -0.8    3.5
H    -3.0    1.4    3.3
H    -2.9    1.5    5.0
H    -5.5    1.5    3.4
H    -4.7    3.0    4.1
H    -6.1    0.8    5.6
H    -7.0    1.8    7.6
H    -5.9    2.5    8.6
H    -3.8    3.5    6.0
N    -1.4   -3.3    4.8
C    -1.4   -4.8    5.0
H    -0.6   -2.8    4.7
H    -2.4   -5.1    5.1
H    -0.8   -5.0    5.9
H    -0.9   -5.3    4.1
