          35
 sphere cut out from bulk 
C    -0.2   -0.6   -0.5
C     0.1    0.3    0.7
O     1.1    1.1    0.7
H     0.6   -0.4   -1.2
H    -1.1   -0.4   -0.9
H    -0.1   -1.7   -0.2
N    -0.8    0.3    1.8
C    -2.0   -0.5    1.9
C    -2.9    0.3    2.8
O    -2.5    1.2    3.5
H    -0.6    1.0    2.5
H    -2.5   -0.6    0.9
C    -1.7   -1.9    2.4
C    -1.1   -2.1    3.8
C    -2.1   -1.9    5.0
N    -1.4   -2.2    6.2
C    -2.1   -2.0    7.4
N    -1.4   -2.5    8.5
N    -3.3   -1.5    7.6
H    -1.1   -2.4    1.7
H    -2.7   -2.5    2.4
H    -0.3   -1.3    3.9
H    -0.6   -3.1    3.9
H    -2.9   -2.6    4.8
H    -2.5   -0.9    5.0
H    -0.8   -3.0    6.2
H    -1.8   -2.2    9.4
H    -0.4   -2.2    8.5
H    -3.8   -1.4    6.7
N    -4.2   -0.1    2.8
C    -5.2    0.4    3.7
H    -4.5   -0.9    2.2
H    -6.1    0.8    3.2
H    -4.7    1.3    4.3
H    -5.5   -0.3    4.5
