          35
 sphere cut out from bulk 
C    -0.2   -0.2   -0.1
C     0.0   -0.0    1.3
O     1.2   -0.1    1.8
H    -1.2    0.2   -0.5
H    -0.2   -1.2   -0.4
H     0.6    0.3   -0.7
N    -1.0    0.0    2.2
C    -2.5    0.1    2.0
C    -3.0   -0.8    0.9
O    -3.7   -0.4   -0.0
H    -0.7    0.1    3.2
H    -2.9   -0.3    2.9
C    -3.0    1.6    1.9
C    -2.4    2.4    0.8
C    -3.1    3.8    0.8
N    -2.9    4.6    2.0
C    -1.8    5.3    2.4
N    -1.8    5.8    3.6
N    -0.7    5.4    1.7
H    -2.8    2.0    2.9
H    -4.1    1.5    1.8
H    -2.6    2.0   -0.1
H    -1.3    2.5    1.0
H    -4.1    3.7    0.6
H    -2.6    4.4   -0.0
H    -3.5    4.4    2.8
H    -1.0    6.4    3.8
H    -2.7    6.4    3.8
H    -0.7    4.8    0.9
N    -2.7   -2.1    1.0
C    -2.0   -2.9    2.0
H    -3.1   -2.7    0.2
H    -2.3   -3.9    2.0
H    -2.2   -2.5    3.0
H    -0.9   -2.8    1.8
