          35
 sphere cut out from bulk 
C     0.2   -0.1    1.0
C    -0.9    0.2    2.0
O    -1.4    1.3    2.2
H     1.0    0.6    1.3
H    -0.2    0.2    0.0
H     0.6   -1.1    1.0
N    -1.3   -0.9    2.7
C    -2.4   -0.8    3.8
C    -2.1   -1.9    4.8
O    -1.6   -3.0    4.4
H    -0.9   -1.8    2.6
H    -2.3    0.2    4.2
C    -3.8   -1.0    3.1
C    -4.9   -0.6    4.0
C    -5.0    1.0    4.3
N    -5.5    1.4    5.6
C    -4.7    1.1    6.7
N    -5.3    0.8    7.9
N    -3.4    1.1    6.7
H    -3.9   -2.0    2.8
H    -3.8   -0.3    2.2
H    -4.8   -1.0    5.0
H    -5.9   -0.9    3.6
H    -5.7    1.4    3.5
H    -4.0    1.5    4.1
H    -6.5    1.1    5.8
H    -6.3    1.2    8.0
H    -4.8    1.0    8.7
H    -3.0    1.4    5.8
N    -2.4   -1.7    6.0
C    -2.2   -2.6    7.1
H    -2.7   -0.7    6.3
H    -1.1   -2.9    7.3
H    -2.7   -3.6    6.8
H    -2.6   -2.3    8.0
