          35
 sphere cut out from bulk 
C    -1.1    1.6    0.8
C    -0.4    0.5    1.6
O     0.8    0.6    2.0
H    -1.5    1.2   -0.1
H    -0.4    2.4    0.7
H    -1.9    2.0    1.4
N    -1.1   -0.7    1.8
C    -2.5   -0.9    1.5
C    -3.5   -0.1    2.3
O    -4.6    0.2    1.8
H    -0.6   -1.4    2.4
H    -2.7   -0.6    0.5
C    -2.8   -2.5    1.6
C    -3.0   -3.2    0.3
C    -4.1   -2.6   -0.6
N    -5.3   -2.2    0.1
C    -6.1   -3.2    0.8
N    -6.0   -4.5    0.3
N    -6.8   -2.9    1.9
H    -3.7   -2.6    2.2
H    -2.0   -2.9    2.2
H    -3.2   -4.2    0.5
H    -2.0   -3.1   -0.3
H    -4.3   -3.3   -1.4
H    -3.7   -1.7   -1.1
H    -5.3   -1.3    0.5
H    -6.1   -4.6   -0.7
H    -6.7   -5.0    0.8
H    -6.6   -1.9    2.2
N    -3.3    0.2    3.6
C    -2.3   -0.3    4.5
H    -4.1    0.7    4.0
H    -2.6   -0.1    5.6
H    -1.3    0.2    4.4
H    -2.1   -1.4    4.5
