          35
 sphere cut out from bulk 
C    -0.1    1.6    2.0
C    -0.3    0.5    3.0
O     0.3    0.4    4.0
H     0.9    2.1    2.3
H    -0.9    2.3    1.9
H     0.1    1.2    1.0
N    -1.4   -0.3    2.8
C    -2.4   -0.2    1.8
C    -3.4    1.1    1.9
O    -3.7    1.7    0.9
H    -1.6   -1.0    3.5
H    -1.9    0.1    0.8
C    -3.2   -1.5    1.6
C    -2.6   -2.6    0.8
C    -1.3   -3.1    1.3
N    -0.8   -4.2    0.5
C     0.4   -4.8    0.7
N     0.6   -6.0   -0.1
N     1.3   -4.5    1.6
H    -4.2   -1.2    1.1
H    -3.5   -1.9    2.6
H    -2.4   -2.2   -0.2
H    -3.3   -3.4    0.6
H    -1.5   -3.5    2.4
H    -0.5   -2.4    1.4
H    -1.6   -4.9    0.2
H     1.5   -6.3    0.0
H     0.3   -5.8   -1.1
H     1.0   -3.7    2.2
N    -3.8    1.4    3.2
C    -3.6    0.8    4.5
H    -4.4    2.2    3.2
H    -3.8   -0.3    4.4
H    -4.3    1.2    5.2
H    -2.6    0.9    4.9
