          35
 sphere cut out from bulk 
C    -0.1   -1.9    0.7
C     0.0   -0.5    1.3
O     1.1    0.1    1.4
H    -0.5   -2.5    1.5
H     0.8   -2.2    0.4
H    -0.8   -1.9   -0.1
N    -1.1    0.2    1.7
C    -2.5   -0.2    1.7
C    -3.2   -0.1    0.3
O    -4.3   -0.7    0.2
H    -0.9    1.1    2.2
H    -2.5   -1.3    2.0
C    -3.3    0.5    2.8
C    -3.5    2.0    2.5
C    -2.6    2.9    3.4
N    -1.1    2.8    3.1
C    -0.1    3.0    4.0
N    -0.5    3.3    5.3
N     1.2    2.8    3.7
H    -2.9    0.3    3.8
H    -4.3    0.1    2.7
H    -4.5    2.3    2.8
H    -3.3    2.3    1.5
H    -2.7    2.6    4.5
H    -2.9    4.0    3.4
H    -0.9    3.2    2.1
H     0.3    3.4    5.9
H    -1.2    4.0    5.4
H     1.3    2.4    2.8
N    -2.5    0.5   -0.6
C    -3.0    0.7   -2.0
H    -1.6    0.9   -0.4
H    -3.1    1.8   -2.2
H    -4.0    0.3   -2.0
H    -2.3    0.2   -2.7
