          35
 sphere cut out from bulk 
C     1.4    1.0    2.1
C     0.6    0.2    3.1
O     1.1   -0.5    4.0
H     2.0    1.8    2.7
H     0.8    1.5    1.4
H     2.1    0.3    1.6
N    -0.8    0.3    2.9
C    -1.7   -0.4    3.8
C    -1.9   -1.9    3.4
O    -3.0   -2.3    2.8
H    -1.2    0.8    2.1
H    -1.3   -0.4    4.8
C    -3.1    0.4    3.9
C    -3.0    1.8    4.3
C    -2.4    2.0    5.7
N    -2.5    3.4    6.1
C    -1.8    3.9    7.2
N    -2.1    5.2    7.5
N    -1.0    3.1    7.8
H    -3.7   -0.2    4.5
H    -3.5    0.3    2.9
H    -4.0    2.2    4.2
H    -2.4    2.4    3.6
H    -1.4    1.7    5.8
H    -3.0    1.4    6.4
H    -3.4    3.9    6.0
H    -1.5    5.6    8.2
H    -2.2    5.8    6.7
H    -0.5    3.6    8.6
N    -0.9   -2.7    3.7
C    -0.8   -4.0    3.3
H    -0.1   -2.2    4.1
H    -0.5   -4.7    4.2
H    -0.1   -4.2    2.5
H    -1.8   -4.4    3.0
