          35
 sphere cut out from bulk 
C     0.8   -1.9    0.2
C     0.5   -0.8    1.1
O     1.3   -0.2    1.8
H     1.8   -1.8   -0.2
H     0.1   -2.1   -0.6
H     0.9   -2.8    0.8
N    -0.8   -0.3    1.1
C    -2.0   -1.0    0.7
C    -3.2    0.0    0.8
O    -3.1    1.0    1.5
H    -1.0    0.5    1.7
H    -1.9   -1.3   -0.4
C    -2.3   -2.3    1.5
C    -2.8   -2.1    2.9
C    -1.9   -1.4    3.9
N    -0.5   -1.8    3.9
C    -0.0   -3.1    4.0
N     1.3   -3.3    3.6
N    -0.6   -4.1    4.6
H    -1.4   -2.9    1.5
H    -3.1   -2.9    0.9
H    -3.1   -3.1    3.3
H    -3.8   -1.6    2.9
H    -2.3   -1.6    5.0
H    -1.9   -0.3    3.8
H     0.1   -1.2    3.4
H     1.7   -4.1    4.0
H     1.9   -2.5    3.5
H    -1.6   -3.9    4.8
N    -4.3   -0.3    0.1
C    -5.5    0.5    0.1
H    -4.2   -1.1   -0.6
H    -6.3   -0.1    0.5
H    -5.8    0.9   -0.9
H    -5.3    1.3    0.8
