          35
 sphere cut out from bulk 
C    -2.7    0.4    0.4
C    -1.8    0.4    1.7
O    -0.6    0.6    1.6
H    -2.3   -0.4   -0.2
H    -2.5    1.3   -0.1
H    -3.7    0.2    0.7
N    -2.4    0.2    2.9
C    -1.8    0.1    4.2
C    -0.7    1.1    4.4
O     0.5    0.8    4.7
H    -3.4    0.0    2.8
H    -2.5    0.3    4.9
C    -1.2   -1.3    4.4
C    -1.1   -1.7    5.9
C    -0.5   -3.1    6.2
N    -1.2   -4.2    5.5
C    -2.4   -4.7    6.0
N    -2.9   -5.7    5.2
N    -2.9   -4.1    7.0
H    -0.3   -1.4    3.9
H    -2.0   -2.0    3.9
H    -2.1   -1.6    6.4
H    -0.5   -0.9    6.4
H    -0.5   -3.2    7.2
H     0.6   -3.1    5.8
H    -1.0   -4.3    4.5
H    -3.7   -6.1    5.5
H    -2.2   -6.3    4.8
H    -3.8   -4.7    7.3
N    -1.0    2.5    4.3
C    -2.2    3.1    3.9
H    -0.2    3.1    4.4
H    -2.3    4.1    4.2
H    -3.1    2.5    4.3
H    -2.4    3.1    2.8
