          35
 sphere cut out from bulk 
C    -1.1    0.6   -0.1
C    -0.8    0.6    1.4
O     0.2    1.1    1.8
H    -2.0    0.1   -0.4
H    -0.3   -0.0   -0.6
H    -1.0    1.6   -0.5
N    -1.8    0.0    2.1
C    -1.7   -0.2    3.6
C    -1.9    1.1    4.4
O    -2.8    1.2    5.3
H    -2.6   -0.3    1.7
H    -2.6   -0.8    3.8
C    -0.5   -1.0    4.0
C    -0.5   -1.4    5.5
C     0.7   -2.2    6.0
N     0.9   -3.5    5.3
C     1.4   -3.7    4.0
N     2.5   -2.9    3.7
N     0.9   -4.6    3.3
H     0.4   -0.4    3.8
H    -0.5   -1.9    3.4
H    -1.4   -1.9    5.7
H    -0.6   -0.5    6.1
H     0.7   -2.4    7.0
H     1.6   -1.6    5.8
H     0.1   -4.1    5.5
H     2.6   -2.7    2.7
H     2.7   -2.0    4.2
H     1.5   -4.8    2.5
N    -1.0    2.1    4.2
C    -1.0    3.4    4.8
H    -0.3    1.9    3.4
H    -0.0    3.6    5.3
H    -1.8    3.3    5.6
H    -1.3    4.2    4.2
