          35
 sphere cut out from bulk 
C     0.1    0.3    1.5
C    -0.9   -0.9    1.6
O    -0.5   -1.9    2.0
H     1.1   -0.1    1.3
H     0.1    0.8    2.5
H    -0.1    1.1    0.7
N    -2.1   -0.7    1.0
C    -2.9    0.5    0.6
C    -2.4    1.0   -0.8
O    -2.8    2.0   -1.3
H    -2.7   -1.6    1.2
H    -3.9    0.1    0.3
C    -3.0    1.6    1.7
C    -3.8    2.8    1.4
C    -5.3    2.6    1.2
N    -5.6    1.9   -0.1
C    -6.3    0.7   -0.1
N    -7.3    0.6    0.8
N    -5.8   -0.3   -0.8
H    -1.9    1.9    1.9
H    -3.3    1.0    2.5
H    -3.4    3.4    0.6
H    -3.7    3.5    2.3
H    -5.8    3.6    1.2
H    -5.7    2.0    2.0
H    -4.9    1.9   -0.8
H    -7.9   -0.3    0.7
H    -7.9    1.4    0.9
H    -6.5   -1.1   -0.9
N    -1.6    0.1   -1.5
C    -1.2    0.4   -2.9
H    -1.4   -0.8   -1.1
H    -1.6   -0.4   -3.6
H    -0.1    0.3   -3.0
H    -1.5    1.4   -3.2
