          35
 sphere cut out from bulk 
C    -0.2   -0.3    0.2
C    -0.2   -0.6    1.7
O     0.6   -1.3    2.2
H     0.8    0.2   -0.0
H    -1.0    0.4   -0.2
H    -0.2   -1.2   -0.4
N    -1.3   -0.1    2.4
C    -1.5   -0.2    3.8
C    -1.9   -1.7    4.2
O    -1.6   -2.1    5.3
H    -1.9    0.5    1.8
H    -0.5   -0.1    4.3
C    -2.5    0.8    4.3
C    -2.6    0.9    5.8
C    -3.9    0.5    6.4
N    -4.2   -1.0    6.2
C    -5.2   -1.6    5.5
N    -6.2   -0.7    5.0
N    -5.3   -2.8    5.3
H    -2.1    1.8    3.9
H    -3.5    0.7    3.9
H    -1.8    0.3    6.3
H    -2.4    1.9    6.2
H    -4.7    1.0    5.9
H    -4.0    0.7    7.5
H    -3.4   -1.6    6.4
H    -6.5    0.0    5.6
H    -7.0   -1.3    4.7
H    -4.5   -3.3    5.7
N    -2.8   -2.4    3.4
C    -3.6   -2.0    2.2
H    -3.0   -3.3    3.8
H    -4.4   -2.7    2.2
H    -4.0   -1.0    2.4
H    -3.0   -2.0    1.3
