          35
 sphere cut out from bulk 
C    -0.5    0.1   -0.1
C    -0.1    0.1    1.3
O     1.1    0.0    1.7
H    -1.4   -0.6   -0.3
H     0.4   -0.3   -0.7
H    -0.7    1.1   -0.5
N    -1.1    0.3    2.2
C    -2.5    0.6    2.0
C    -2.8    2.1    2.3
O    -2.6    2.6    3.4
H    -0.8    0.5    3.2
H    -2.8    0.3    1.0
C    -3.4   -0.2    3.0
C    -4.9   -0.1    2.9
C    -5.6   -1.1    2.0
N    -5.4   -0.9    0.5
C    -4.3   -1.4   -0.2
N    -3.6   -2.5    0.3
N    -3.9   -0.9   -1.4
H    -3.1    0.1    4.0
H    -3.1   -1.3    2.9
H    -5.2    0.9    2.7
H    -5.3   -0.3    3.9
H    -6.7   -1.0    2.1
H    -5.3   -2.1    2.2
H    -5.8   -0.1    0.1
H    -4.2   -3.1    0.9
H    -3.0   -2.9   -0.3
H    -4.4   -0.1   -1.6
N    -3.2    2.8    1.2
C    -3.6    2.5   -0.1
H    -3.3    3.8    1.5
H    -4.7    2.4   -0.2
H    -3.1    1.5   -0.4
H    -3.3    3.2   -0.8
