          35
 sphere cut out from bulk 
C    -1.9    1.6    0.5
C    -1.2    1.0    1.8
O    -0.0    1.1    2.0
H    -3.0    1.6    0.6
H    -1.6    0.9   -0.3
H    -1.5    2.6    0.3
N    -2.1    0.4    2.6
C    -1.6   -0.4    3.8
C    -2.7   -1.3    4.4
O    -2.4   -2.4    4.8
H    -3.0    0.2    2.4
H    -0.8   -1.1    3.5
C    -0.9    0.5    4.9
C    -1.4    1.9    5.1
C    -2.8    2.2    5.7
N    -3.8    2.2    4.6
C    -5.1    2.6    4.8
N    -5.6    2.3    6.1
N    -5.8    3.0    3.8
H     0.2    0.6    4.6
H    -0.9   -0.1    5.8
H    -1.3    2.5    4.2
H    -0.7    2.4    5.8
H    -2.8    3.2    6.2
H    -3.0    1.4    6.4
H    -3.5    2.6    3.7
H    -6.5    2.7    6.3
H    -5.0    2.2    6.9
H    -6.8    3.2    4.1
N    -4.0   -0.8    4.4
C    -5.0   -1.5    5.0
H    -4.0    0.3    4.3
H    -6.0   -0.9    4.9
H    -4.9   -1.6    6.1
H    -5.2   -2.5    4.6
