          35
 sphere cut out from bulk 
C    -0.1    0.2   -0.1
C    -0.0    0.0    1.4
O     1.1   -0.1    2.0
H     0.9    0.3   -0.5
H    -0.7    1.1   -0.4
H    -0.6   -0.7   -0.6
N    -1.2    0.0    2.1
C    -2.5    0.0    1.5
C    -3.0    1.4    1.1
O    -3.9    1.5    0.2
H    -1.1   -0.2    3.1
H    -2.6   -0.6    0.7
C    -3.5   -0.5    2.6
C    -4.9   -0.9    2.1
C    -5.9   -1.3    3.2
N    -7.2   -1.7    2.8
C    -7.4   -3.0    2.2
N    -8.7   -3.2    1.8
N    -6.4   -3.9    2.3
H    -3.6    0.2    3.4
H    -3.1   -1.4    3.0
H    -4.9   -1.7    1.3
H    -5.4    0.0    1.6
H    -6.0   -0.5    3.9
H    -5.4   -2.2    3.7
H    -7.8   -1.0    2.4
H    -8.8   -3.9    1.1
H    -9.3   -2.4    1.6
H    -6.8   -4.8    2.0
N    -2.4    2.5    1.6
C    -2.7    3.8    1.3
H    -1.6    2.2    2.2
H    -3.0    4.4    2.2
H    -3.5    3.8    0.6
H    -1.8    4.4    0.9
