          35
 sphere cut out from bulk 
C     1.1    0.6    0.0
C     0.8    0.5    1.5
O     1.6    1.0    2.3
H     2.1    0.1   -0.2
H     1.2    1.6   -0.3
H     0.3    0.1   -0.6
N    -0.4   -0.1    1.8
C    -0.9   -0.2    3.2
C    -1.8    1.1    3.5
O    -3.0    1.1    3.1
H    -1.0   -0.3    1.1
H    -1.8   -0.9    3.0
C     0.0   -0.8    4.2
C    -0.7   -1.0    5.6
C     0.2   -1.6    6.6
N     1.3   -0.6    7.0
C     2.0   -0.9    8.2
N     3.1    0.1    8.3
N     1.9   -1.8    9.0
H     0.9   -0.1    4.3
H     0.4   -1.7    3.8
H    -1.5   -1.7    5.4
H    -1.1   -0.1    6.0
H     0.7   -2.5    6.3
H    -0.4   -1.8    7.5
H     1.8   -0.2    6.2
H     3.6   -0.0    9.2
H     2.8    1.0    8.1
H     1.2   -2.5    8.8
N    -1.3    2.1    4.2
C     0.0    2.4    4.7
H    -2.0    2.9    4.3
H     0.1    3.5    4.8
H     0.8    2.0    4.0
H     0.1    2.0    5.7
