          35
 sphere cut out from bulk 
C     0.0    0.5    0.4
C    -0.1    0.0    1.8
O     0.8   -0.4    2.4
H    -0.1   -0.3   -0.3
H     1.1    0.9    0.3
H    -0.7    1.3    0.1
N    -1.4   -0.1    2.4
C    -2.7    0.4    1.9
C    -3.0    0.1    0.4
O    -2.7   -1.0   -0.0
H    -1.4   -0.5    3.3
H    -3.4   -0.2    2.4
C    -3.0    1.9    2.4
C    -2.1    3.0    1.9
C    -2.7    4.4    2.2
N    -2.6    5.3    1.1
C    -3.5    5.1    0.0
N    -3.3    6.1   -1.0
N    -4.2    4.0   -0.1
H    -3.0    1.8    3.5
H    -4.0    2.1    2.1
H    -1.9    2.9    0.8
H    -1.1    2.9    2.4
H    -2.1    4.9    3.0
H    -3.7    4.3    2.5
H    -1.8    5.8    0.9
H    -4.0    6.0   -1.7
H    -3.2    7.0   -0.6
H    -4.9    4.1   -0.8
N    -3.6    1.1   -0.3
C    -3.9    0.8   -1.7
H    -3.8    2.0    0.1
H    -4.2    1.8   -2.2
H    -4.8    0.1   -1.8
H    -3.1    0.4   -2.2
