          35
 sphere cut out from bulk 
C    -0.5    0.2    2.6
C    -1.9    0.6    3.2
O    -2.1    1.7    3.6
H     0.1   -0.1    3.5
H    -0.1    1.1    2.2
H    -0.5   -0.6    1.9
N    -2.9   -0.3    3.3
C    -3.0   -1.7    2.8
C    -1.7   -2.6    3.0
O    -1.2   -3.2    2.1
H    -3.7    0.1    3.6
H    -3.7   -2.2    3.5
C    -3.5   -1.9    1.4
C    -2.8   -1.2    0.3
C    -3.4   -1.4   -1.1
N    -2.7   -0.7   -2.1
C    -3.1   -0.5   -3.4
N    -4.4   -0.8   -3.7
N    -2.4    0.1   -4.4
H    -4.6   -1.5    1.4
H    -3.6   -3.0    1.1
H    -1.7   -1.6    0.2
H    -2.7   -0.1    0.5
H    -4.4   -0.9   -1.1
H    -3.5   -2.4   -1.3
H    -1.7   -0.7   -2.0
H    -4.7   -0.7   -4.7
H    -4.8   -1.6   -3.3
H    -1.5    0.4   -4.1
N    -1.2   -2.7    4.3
C    -1.8   -2.1    5.5
H    -0.4   -3.2    4.4
H    -1.4   -2.6    6.4
H    -2.8   -2.1    5.6
H    -1.4   -1.0    5.6
