          35
 sphere cut out from bulk 
C    -0.6   -0.7   -0.6
C    -0.6    0.0    0.8
O     0.1    1.0    1.1
H    -0.9    0.0   -1.3
H    -1.1   -1.6   -0.6
H     0.5   -0.8   -0.8
N    -1.5   -0.5    1.7
C    -1.8    0.1    3.0
C    -0.9   -0.4    4.2
O    -1.0    0.1    5.3
H    -2.1   -1.2    1.4
H    -1.6    1.2    2.9
C    -3.3   -0.0    3.2
C    -4.0    0.9    4.2
C    -4.1    0.4    5.7
N    -4.8   -0.8    5.9
C    -4.3   -2.1    5.9
N    -3.0   -2.3    5.8
N    -5.1   -3.2    5.9
H    -3.6   -1.1    3.5
H    -3.8    0.2    2.2
H    -5.0    1.1    3.9
H    -3.5    1.9    4.3
H    -4.5    1.2    6.3
H    -3.1    0.3    6.1
H    -5.8   -0.8    5.8
H    -2.7   -3.2    6.1
H    -2.4   -1.5    6.2
H    -6.1   -3.0    5.9
N    -0.1   -1.5    3.9
C     0.7   -2.1    4.9
H    -0.2   -1.8    2.9
H     0.7   -1.4    5.8
H     1.7   -2.1    4.5
H     0.4   -3.1    5.2
