          35
 sphere cut out from bulk 
C     0.2   -1.4    0.7
C     0.3   -0.4    1.9
O     1.4   -0.0    2.4
H    -0.2   -2.3    1.0
H     1.3   -1.6    0.4
H    -0.3   -0.9   -0.2
N    -0.9    0.1    2.4
C    -2.2   -0.1    1.9
C    -2.8    1.3    1.6
O    -2.7    2.2    2.4
H    -0.8    0.8    3.1
H    -2.2   -0.7    0.9
C    -3.1   -0.8    2.9
C    -2.8   -2.3    3.2
C    -3.2   -3.2    2.1
N    -3.0   -4.7    2.4
C    -1.7   -5.2    2.2
N    -0.9   -4.7    1.1
N    -1.1   -6.0    3.0
H    -4.2   -0.8    2.5
H    -3.1   -0.2    3.8
H    -3.2   -2.6    4.1
H    -1.7   -2.4    3.3
H    -2.8   -3.0    1.1
H    -4.3   -3.1    1.9
H    -3.4   -5.0    3.2
H    -0.1   -5.2    1.0
H    -1.5   -4.7    0.3
H    -1.6   -6.2    3.9
N    -3.5    1.4    0.4
C    -4.2    2.6   -0.0
H    -3.5    0.6   -0.2
H    -5.3    2.4   -0.2
H    -3.8    3.0   -1.0
H    -4.0    3.4    0.8
