          35
 sphere cut out from bulk 
C    -2.7   -0.2    1.0
C    -1.6    0.1    2.1
O    -0.5    0.5    1.9
H    -3.6   -0.6    1.4
H    -2.3   -0.8    0.3
H    -2.9    0.8    0.5
N    -2.1   -0.2    3.4
C    -1.2   -0.2    4.5
C    -0.5    1.2    4.7
O     0.7    1.3    5.0
H    -3.0   -0.6    3.5
H    -1.9   -0.3    5.4
C    -0.2   -1.3    4.7
C    -0.5   -2.6    4.0
C    -1.9   -3.2    4.2
N    -2.5   -3.1    5.6
C    -3.6   -2.4    5.9
N    -4.1   -2.6    7.2
N    -4.2   -1.7    5.0
H    -0.0   -1.4    5.7
H     0.8   -0.9    4.2
H     0.2   -3.4    4.3
H    -0.4   -2.6    2.9
H    -1.9   -4.3    4.0
H    -2.7   -2.8    3.6
H    -2.2   -3.8    6.3
H    -4.7   -1.9    7.5
H    -3.4   -2.9    7.9
H    -5.0   -1.2    5.4
N    -1.3    2.3    4.7
C    -2.7    2.5    4.4
H    -0.8    3.2    4.8
H    -3.1    3.4    4.8
H    -3.3    1.6    4.9
H    -3.0    2.5    3.3
