          35
 sphere cut out from bulk 
C    -1.3   -2.0    0.9
C    -0.1   -1.1    1.4
O     1.0   -1.5    1.6
H    -1.7   -1.6   -0.0
H    -2.0   -2.1    1.6
H    -0.8   -2.9    0.7
N    -0.5    0.3    1.6
C    -1.8    0.9    1.5
C    -2.1    1.4    0.0
O    -3.2    1.8   -0.2
H     0.3    0.8    2.0
H    -2.5    0.2    1.7
C    -1.9    2.1    2.5
C    -0.9    3.2    2.4
C    -1.3    4.3    1.3
N    -0.3    5.3    1.1
C     0.9    5.1    0.5
N     0.9    4.1   -0.5
N     1.9    5.9    0.9
H    -1.8    1.6    3.5
H    -2.9    2.5    2.4
H     0.1    2.9    2.1
H    -0.8    3.7    3.3
H    -2.2    4.8    1.6
H    -1.6    3.9    0.3
H    -0.2    6.0    1.9
H     1.9    3.8   -0.7
H     0.2    3.4   -0.4
H     2.7    5.7    0.3
N    -1.1    1.4   -0.9
C    -1.2    1.6   -2.3
H    -0.2    0.9   -0.5
H    -0.5    2.3   -2.6
H    -2.2    2.1   -2.4
H    -1.2    0.7   -2.9
