          35
 sphere cut out from bulk 
C     0.4    0.3    0.6
C    -0.2    0.2    2.0
O     0.5    0.6    3.0
H     1.5    0.1    0.7
H     0.2    1.3    0.2
H    -0.1   -0.4   -0.1
N    -1.5   -0.2    2.2
C    -2.5   -0.4    1.2
C    -2.3   -1.7    0.4
O    -2.8   -1.8   -0.7
H    -1.8   -0.1    3.2
H    -3.4   -0.7    1.8
C    -2.9    0.8    0.3
C    -4.3    1.3    0.4
C    -5.4    0.3   -0.1
N    -5.6   -0.8    0.8
C    -6.2   -2.0    0.5
N    -5.7   -2.5   -0.7
N    -7.1   -2.5    1.2
H    -2.6    0.6   -0.7
H    -2.2    1.6    0.6
H    -4.6    1.6    1.4
H    -4.4    2.2   -0.2
H    -5.0   -0.1   -1.1
H    -6.3    0.9   -0.3
H    -6.2   -0.4    1.7
H    -5.9   -3.5   -0.9
H    -4.7   -2.3   -0.9
H    -7.3   -3.5    0.9
N    -1.5   -2.6    1.0
C    -1.2   -3.9    0.4
H    -1.1   -2.4    1.9
H    -0.2   -4.1    0.3
H    -1.7   -3.9   -0.6
H    -1.7   -4.7    1.0
