          35
 sphere cut out from bulk 
C    -0.5    1.9    3.6
C    -0.2    0.7    2.7
O     0.6   -0.1    3.1
H     0.0    1.8    4.5
H    -1.6    1.9    3.9
H    -0.3    2.9    3.1
N    -0.7    0.7    1.5
C    -1.8    1.6    0.9
C    -3.2    1.5    1.5
O    -3.9    2.5    1.4
H    -0.5   -0.1    0.9
H    -1.5    2.6    1.2
C    -1.8    1.5   -0.6
C    -2.3    0.1   -1.2
C    -2.3    0.1   -2.7
N    -2.7   -1.2   -3.3
C    -2.0   -2.3   -3.0
N    -0.6   -2.2   -3.1
N    -2.6   -3.4   -2.8
H    -0.8    1.7   -1.0
H    -2.5    2.3   -0.9
H    -1.6   -0.7   -0.8
H    -3.3   -0.1   -0.8
H    -1.3    0.4   -3.1
H    -3.0    0.9   -3.1
H    -3.7   -1.4   -3.1
H    -0.1   -3.0   -3.1
H    -0.2   -1.5   -3.8
H    -2.0   -4.2   -2.8
N    -3.6    0.3    2.1
C    -3.1   -1.0    2.3
H    -4.6    0.5    2.5
H    -3.9   -1.7    2.6
H    -2.3   -1.0    3.0
H    -2.7   -1.4    1.3
