          35
 sphere cut out from bulk 
C     0.4   -0.2    0.2
C     0.2   -0.4    1.7
O     1.0   -1.0    2.3
H     1.4    0.4    0.0
H    -0.4    0.4   -0.3
H     0.5   -1.1   -0.3
N    -0.9    0.2    2.2
C    -1.2    0.1    3.6
C    -1.9   -1.2    4.0
O    -3.1   -1.3    4.2
H    -1.6    0.6    1.6
H    -0.3    0.1    4.2
C    -2.1    1.3    4.0
C    -1.4    2.6    3.9
C    -2.3    3.8    4.3
N    -2.8    3.8    5.7
C    -2.0    4.2    6.7
N    -2.6    4.0    8.0
N    -0.8    4.6    6.5
H    -2.4    1.1    5.1
H    -3.0    1.3    3.4
H    -1.0    2.8    2.9
H    -0.5    2.6    4.6
H    -3.2    3.9    3.6
H    -1.7    4.8    4.2
H    -3.5    3.1    5.9
H    -2.1    4.3    8.7
H    -3.6    4.2    8.0
H    -0.4    4.9    7.4
N    -1.1   -2.3    3.9
C    -1.5   -3.7    4.1
H    -0.1   -2.1    3.6
H    -0.8   -4.2    4.9
H    -1.5   -4.2    3.2
H    -2.5   -3.7    4.5
