          35
 sphere cut out from bulk 
C    -0.8   -1.4    1.4
C    -1.0   -0.3    2.4
O    -0.5    0.8    2.4
H    -1.4   -2.2    1.5
H     0.3   -1.8    1.5
H    -0.8   -0.9    0.4
N    -1.7   -0.7    3.5
C    -1.9    0.1    4.8
C    -2.9    1.2    4.6
O    -3.8    1.4    5.4
H    -2.1   -1.6    3.5
H    -2.5   -0.6    5.4
C    -0.6    0.5    5.4
C     0.3   -0.7    5.9
C     1.8   -0.4    5.7
N     2.2   -0.5    4.3
C     2.6   -1.7    3.7
N     3.5   -2.5    4.6
N     2.3   -2.1    2.5
H    -0.9    1.1    6.3
H    -0.1    1.1    4.7
H     0.0   -1.6    5.3
H     0.1   -0.9    6.9
H     2.4   -1.1    6.3
H     2.0    0.6    6.0
H     1.6   -0.0    3.6
H     3.9   -3.3    4.2
H     4.1   -1.9    5.2
H     2.9   -2.9    2.2
N    -2.6    2.1    3.6
C    -3.4    3.3    3.4
H    -1.8    1.9    3.0
H    -3.8    3.3    2.4
H    -2.8    4.2    3.5
H    -4.2    3.3    4.1
