          35
 sphere cut out from bulk 
C     0.3    0.7    0.1
C     0.1   -0.1    1.4
O     1.0   -0.7    1.9
H    -0.5    1.4   -0.1
H     0.4    0.0   -0.7
H     1.2    1.3    0.2
N    -1.2   -0.2    2.0
C    -2.4    0.6    1.8
C    -2.9    0.7    0.3
O    -3.6    1.7   -0.1
H    -1.2   -0.7    2.8
H    -3.2    0.1    2.3
C    -2.4    2.0    2.5
C    -1.2    3.0    2.3
C    -1.3    3.8    1.0
N    -0.1    4.6    0.9
C     0.0    5.6   -0.1
N     1.3    6.1   -0.2
N    -1.0    5.9   -0.8
H    -2.5    1.8    3.6
H    -3.4    2.5    2.3
H    -0.3    2.4    2.3
H    -1.2    3.6    3.2
H    -2.1    4.5    1.1
H    -1.5    3.2    0.1
H     0.8    4.1    1.1
H     1.4    6.9   -0.8
H     1.8    6.2    0.7
H    -0.8    6.7   -1.4
N    -2.7   -0.4   -0.4
C    -3.2   -0.6   -1.8
H    -2.1   -1.1    0.0
H    -3.8   -1.5   -1.9
H    -3.8    0.3   -2.0
H    -2.3   -0.6   -2.5
