          35
 sphere cut out from bulk 
C    -0.0   -0.1    0.8
C    -0.3   -0.3    2.3
O     0.5   -0.2    3.2
H     0.2   -1.1    0.4
H     0.8    0.6    0.8
H    -0.9    0.3    0.3
N    -1.6   -0.7    2.7
C    -2.9   -0.4    2.0
C    -3.0   -1.1    0.6
O    -3.7   -0.6   -0.3
H    -1.7   -0.7    3.7
H    -3.6   -0.8    2.6
C    -3.1    1.1    1.9
C    -3.5    1.8    3.2
C    -2.5    1.9    4.4
N    -2.5    0.6    5.1
C    -1.6    0.5    6.2
N    -0.2    0.7    5.9
N    -2.1    0.1    7.4
H    -4.0    1.3    1.2
H    -2.3    1.6    1.5
H    -4.5    1.4    3.6
H    -3.8    2.9    3.0
H    -2.7    2.7    5.0
H    -1.5    2.0    3.9
H    -3.4    0.4    5.5
H     0.4    0.5    6.6
H     0.1    0.5    5.0
H    -1.3   -0.1    8.1
N    -2.5   -2.4    0.6
C    -2.5   -3.2   -0.5
H    -1.9   -2.6    1.4
H    -3.0   -4.2   -0.3
H    -3.2   -2.7   -1.3
H    -1.6   -3.4   -1.0
