          35
 sphere cut out from bulk 
C     0.6   -1.3   -0.3
C     0.7   -1.4    1.2
O     1.6   -2.0    1.8
H     0.8   -0.3   -0.7
H    -0.4   -1.6   -0.7
H     1.3   -2.0   -0.7
N    -0.3   -0.8    1.9
C    -1.4    0.0    1.4
C    -1.0    1.3    0.7
O    -0.0    1.9    1.1
H    -0.2   -0.8    2.9
H    -2.0   -0.6    0.7
C    -2.5    0.3    2.5
C    -2.1    1.5    3.4
C    -0.9    1.4    4.3
N    -0.6    2.6    5.2
C    -0.0    3.8    4.7
N     0.8    3.6    3.5
N    -0.0    4.9    5.3
H    -2.6   -0.6    3.1
H    -3.4    0.5    2.1
H    -3.0    1.7    4.1
H    -2.0    2.5    2.8
H     0.0    1.2    3.7
H    -1.0    0.6    5.0
H    -1.3    2.8    5.9
H     1.1    4.5    3.2
H     0.5    3.0    2.8
H    -0.5    4.8    6.2
N    -1.8    1.7   -0.3
C    -1.6    2.9   -1.1
H    -2.5    1.1   -0.6
H    -0.8    3.4   -0.6
H    -2.5    3.6   -1.0
H    -1.4    2.7   -2.1
