          35
 sphere cut out from bulk 
C    -0.8    2.0    0.2
C    -0.7    2.1    1.7
O    -0.2    3.1    2.2
H    -1.3    1.1   -0.1
H     0.2    1.9   -0.2
H    -1.3    2.8   -0.2
N    -1.1    1.1    2.5
C    -2.1    0.1    2.3
C    -1.7   -1.1    1.3
O    -2.5   -1.7    0.7
H    -0.9    1.3    3.5
H    -2.3   -0.5    3.2
C    -3.5    0.7    1.9
C    -4.0    1.6    2.9
C    -4.6    2.9    2.4
N    -3.6    3.7    1.6
C    -3.6    4.0    0.3
N    -4.6    3.5   -0.5
N    -2.8    4.9   -0.2
H    -4.2   -0.2    1.6
H    -3.3    1.2    0.9
H    -3.3    1.9    3.6
H    -4.8    1.1    3.5
H    -5.1    3.5    3.2
H    -5.5    2.7    1.7
H    -2.9    4.1    2.2
H    -4.5    3.7   -1.5
H    -4.8    2.5   -0.3
H    -2.2    5.3    0.4
N    -0.3   -1.3    1.2
C     0.3   -2.3    0.4
H     0.2   -0.6    1.8
H     0.9   -3.0    1.0
H     0.9   -1.9   -0.4
H    -0.5   -2.9   -0.0
