          35
 sphere cut out from bulk 
C    -0.3    0.1   -0.1
C    -0.2    0.4    1.4
O     0.8    0.8    1.9
H    -1.4   -0.1   -0.5
H     0.3   -0.7   -0.4
H     0.0    1.1   -0.7
N    -1.3    0.1    2.1
C    -1.4    0.2    3.6
C    -0.8    1.5    4.2
O    -0.0    1.4    5.1
H    -2.1   -0.3    1.6
H    -2.5    0.2    3.8
C    -0.8   -1.1    4.2
C    -1.5   -2.4    3.9
C    -0.9   -3.6    4.5
N    -0.9   -3.5    6.0
C    -0.1   -4.3    6.8
N    -0.4   -4.2    8.2
N     0.8   -5.1    6.3
H    -0.8   -0.9    5.3
H     0.3   -1.1    3.9
H    -1.5   -2.5    2.8
H    -2.5   -2.3    4.2
H     0.2   -3.7    4.3
H    -1.3   -4.5    4.2
H    -1.9   -3.3    6.4
H     0.2   -4.6    8.8
H    -0.6   -3.2    8.4
H     1.4   -5.5    7.0
N    -1.2    2.7    3.7
C    -2.1    3.0    2.6
H    -0.8    3.5    4.1
H    -2.5    4.0    2.7
H    -3.0    2.3    2.6
H    -1.6    2.9    1.6
