          35
 sphere cut out from bulk 
C    -0.3   -0.9   -0.2
C    -0.4    0.1    0.9
O     0.5    1.0    1.1
H     0.5   -1.5    0.0
H    -0.2   -0.4   -1.1
H    -1.2   -1.5   -0.2
N    -1.5    0.1    1.8
C    -1.6    0.8    3.0
C    -2.7    0.3    3.9
O    -2.6    0.3    5.2
H    -2.0   -0.8    1.8
H    -0.6    0.7    3.6
C    -1.7    2.4    2.8
C    -1.8    3.3    4.0
C    -0.6    3.4    4.8
N    -0.3    2.2    5.6
C     0.8    2.1    6.5
N     1.8    3.0    6.4
N     0.8    1.2    7.5
H    -2.6    2.5    2.1
H    -0.9    2.7    2.1
H    -2.7    3.0    4.7
H    -2.1    4.3    3.6
H    -0.7    4.2    5.5
H     0.3    3.6    4.2
H    -1.1    1.6    5.7
H     2.6    2.8    7.0
H     2.1    3.2    5.4
H    -0.0    0.6    7.5
N    -3.8   -0.0    3.3
C    -5.0   -0.4    4.0
H    -3.9    0.2    2.3
H    -5.5   -1.3    3.5
H    -5.8    0.4    4.0
H    -4.8   -0.7    5.0
