          35
 sphere cut out from bulk 
C     0.1   -0.5   -0.1
C    -0.0   -0.6    1.4
O     0.6   -1.5    2.0
H     1.2   -0.3   -0.4
H    -0.5    0.3   -0.6
H    -0.1   -1.4   -0.6
N    -0.9    0.2    1.9
C    -1.3    0.1    3.4
C    -2.6   -0.6    3.5
O    -3.7   -0.0    3.1
H    -1.5    0.8    1.3
H    -0.5   -0.4    3.8
C    -1.3    1.6    4.0
C    -1.3    1.6    5.5
C    -2.5    1.0    6.2
N    -2.5    1.3    7.7
C    -2.9    2.5    8.2
N    -2.7    2.6    9.5
N    -3.4    3.5    7.5
H    -2.2    2.1    3.6
H    -0.5    2.1    3.6
H    -1.2    2.6    5.8
H    -0.4    1.1    5.9
H    -2.6   -0.1    6.1
H    -3.4    1.4    5.8
H    -1.8    0.8    8.2
H    -3.1    3.5    9.9
H    -3.0    1.8   10.1
H    -3.4    3.4    6.5
N    -2.6   -1.9    3.9
C    -1.5   -2.7    4.3
H    -3.6   -2.3    3.9
H    -1.8   -3.7    4.3
H    -1.2   -2.5    5.4
H    -0.6   -2.5    3.7
