          35
 sphere cut out from bulk 
C     0.1    0.2    1.6
C    -0.1    0.5    3.1
O     0.8    0.8    3.9
H     1.0   -0.5    1.6
H     0.3    1.1    1.1
H    -0.7   -0.4    1.1
N    -1.5    0.6    3.5
C    -2.7    0.6    2.8
C    -3.1   -0.8    2.2
O    -3.9   -1.0    1.4
H    -1.5    0.9    4.5
H    -3.5    0.8    3.5
C    -2.8    1.7    1.7
C    -4.2    2.1    1.1
C    -5.3    2.2    2.1
N    -5.8    1.0    2.6
C    -6.0    0.7    3.9
N    -6.0   -0.7    4.2
N    -6.0    1.5    4.9
H    -2.1    1.5    0.9
H    -2.5    2.6    2.3
H    -4.5    1.3    0.4
H    -4.1    3.0    0.6
H    -6.2    2.8    1.6
H    -5.0    2.9    2.9
H    -5.5    0.2    2.0
H    -6.4   -0.9    5.1
H    -6.5   -1.2    3.5
H    -5.9    2.5    4.6
N    -2.5   -1.9    2.8
C    -2.8   -3.2    2.5
H    -1.8   -1.6    3.6
H    -1.8   -3.8    2.4
H    -3.4   -3.3    1.6
H    -3.3   -3.7    3.4
