          35
 sphere cut out from bulk 
C    -0.1   -1.6    0.3
C    -0.1   -0.9    1.7
O     0.7   -1.1    2.6
H     0.3   -2.6    0.5
H     0.7   -1.1   -0.3
H    -1.0   -1.6   -0.2
N    -1.0    0.1    1.7
C    -1.5    1.0    2.9
C    -1.0    2.4    2.9
O    -1.8    3.3    3.2
H    -1.7    0.2    0.9
H    -2.5    1.1    2.7
C    -1.3    0.4    4.3
C    -1.9   -1.0    4.6
C    -3.4   -1.2    4.2
N    -3.5   -1.7    2.8
C    -4.1   -0.9    1.8
N    -3.9   -1.5    0.5
N    -4.8    0.2    1.8
H    -1.8    1.1    5.0
H    -0.2    0.3    4.5
H    -1.8   -1.2    5.6
H    -1.3   -1.8    4.1
H    -4.0   -0.3    4.3
H    -3.8   -2.0    4.8
H    -2.9   -2.4    2.5
H    -4.5   -1.1   -0.2
H    -4.0   -2.5    0.5
H    -4.8    0.6    2.8
N     0.3    2.8    2.5
C     1.4    1.9    2.2
H     0.4    3.8    2.6
H     1.4    1.0    2.8
H     2.4    2.4    2.6
H     1.5    1.7    1.1
