          35
 sphere cut out from bulk 
C     0.8   -1.0    0.5
C     0.4   -0.6    1.9
O     1.0    0.3    2.5
H     1.8   -1.4    0.5
H     0.8   -0.2   -0.2
H     0.1   -1.8    0.1
N    -0.8   -1.2    2.4
C    -1.4   -0.8    3.6
C    -1.5   -2.0    4.6
O    -2.6   -2.4    4.9
H    -1.3   -1.8    1.8
H    -0.6   -0.1    4.1
C    -2.6    0.0    3.5
C    -3.7   -0.6    2.6
C    -5.1   -0.4    3.1
N    -5.3   -1.0    4.4
C    -6.0   -0.4    5.5
N    -6.9    0.6    5.1
N    -5.7   -0.6    6.7
H    -2.4    1.0    3.0
H    -3.1    0.2    4.5
H    -3.6   -1.7    2.6
H    -3.6   -0.3    1.5
H    -5.9   -0.8    2.4
H    -5.3    0.7    3.2
H    -4.6   -1.6    4.7
H    -7.4    0.9    5.9
H    -7.5    0.3    4.3
H    -4.9   -1.2    6.8
N    -0.4   -2.6    5.0
C     1.0   -2.3    4.7
H    -0.6   -3.4    5.6
H     1.6   -2.6    5.6
H     1.1   -1.2    4.5
H     1.4   -2.9    3.8
