          35
 sphere cut out from bulk 
C     0.2   -0.1    1.1
C    -0.9    0.1    2.1
O    -1.4    1.2    2.2
H     1.1    0.6    1.4
H    -0.1    0.2    0.1
H     0.6   -1.1    1.1
N    -1.3   -1.0    2.8
C    -2.4   -0.9    3.8
C    -2.1   -2.0    4.8
O    -1.6   -3.1    4.5
H    -0.9   -1.9    2.7
H    -2.3    0.1    4.2
C    -3.8   -1.1    3.1
C    -5.0   -0.7    4.0
C    -5.1    0.9    4.2
N    -5.6    1.3    5.5
C    -4.8    1.1    6.6
N    -5.5    0.8    7.8
N    -3.5    1.1    6.6
H    -3.9   -2.1    2.8
H    -3.8   -0.5    2.2
H    -4.8   -1.1    5.0
H    -5.9   -1.1    3.6
H    -5.8    1.3    3.4
H    -4.1    1.4    4.0
H    -6.6    1.0    5.6
H    -6.4    1.1    7.8
H    -4.9    1.0    8.6
H    -3.1    1.4    5.7
N    -2.4   -1.7    6.1
C    -2.3   -2.6    7.2
H    -2.7   -0.7    6.3
H    -2.2   -3.6    6.8
H    -3.1   -2.6    7.8
H    -1.4   -2.4    7.8
