          35
 sphere cut out from bulk 
C     0.0   -0.3    1.7
C    -0.8   -0.6    3.0
O    -0.2   -0.7    4.1
H     0.1    0.8    1.7
H    -0.5   -0.6    0.8
H     1.0   -0.7    1.8
N    -2.1   -0.7    2.9
C    -3.1   -0.3    1.9
C    -3.2   -1.4    0.8
O    -2.3   -2.0    0.4
H    -2.5   -0.9    3.8
H    -4.1   -0.4    2.5
C    -3.0    1.1    1.4
C    -3.4    2.2    2.4
C    -2.4    2.5    3.5
N    -1.1    2.8    3.0
C    -0.0    3.1    3.9
N     0.1    2.1    5.0
N     0.7    4.1    3.7
H    -3.7    1.2    0.5
H    -2.0    1.2    1.0
H    -4.4    2.0    2.8
H    -3.5    3.1    1.8
H    -2.3    1.6    4.2
H    -2.8    3.3    4.2
H    -1.1    3.6    2.4
H    -0.1    1.2    4.7
H     1.0    2.3    5.5
H     1.5    4.1    4.3
N    -4.5   -1.5    0.2
C    -5.7   -0.9    0.6
H    -4.5   -2.2   -0.6
H    -6.5   -1.2   -0.1
H    -5.7    0.2    0.6
H    -6.0   -1.3    1.6
