          35
 sphere cut out from bulk 
C     0.0    0.1    0.2
C     0.0    0.0    1.7
O     1.1   -0.1    2.4
H     1.0    0.0   -0.1
H    -0.4    1.0   -0.1
H    -0.6   -0.7   -0.2
N    -1.2    0.1    2.4
C    -2.5    0.0    1.8
C    -3.4    1.0    2.6
O    -4.1    0.5    3.5
H    -1.1   -0.1    3.4
H    -2.5    0.5    0.8
C    -3.1   -1.4    1.7
C    -4.4   -1.4    0.9
C    -5.0   -2.8    0.8
N    -6.2   -2.9   -0.0
C    -6.9   -4.0   -0.3
N    -6.2   -5.2   -0.2
N    -8.1   -3.8   -0.7
H    -3.3   -1.7    2.7
H    -2.4   -2.0    1.2
H    -4.2   -1.1   -0.2
H    -5.2   -0.8    1.3
H    -5.2   -3.2    1.8
H    -4.2   -3.5    0.4
H    -6.8   -2.0    0.0
H    -6.8   -6.0   -0.2
H    -5.5   -5.2    0.4
H    -8.6   -4.7   -1.0
N    -3.3    2.3    2.4
C    -2.5    3.0    1.5
H    -3.9    2.9    3.0
H    -1.4    2.8    1.7
H    -2.7    4.0    1.5
H    -2.6    2.6    0.4
