          35
 sphere cut out from bulk 
C    -1.5    0.3    0.2
C    -1.0    0.1    1.6
O    -0.3    0.9    2.1
H    -0.6    0.3   -0.5
H    -2.0    1.3    0.1
H    -2.2   -0.5   -0.1
N    -1.5   -1.0    2.3
C    -1.1   -1.3    3.7
C     0.2   -2.1    3.7
O     0.2   -3.3    3.9
H    -2.0   -1.7    1.8
H    -1.0   -0.3    4.1
C    -2.3   -2.0    4.4
C    -3.6   -1.3    4.4
C    -3.6    0.0    5.1
N    -4.9    0.7    5.2
C    -6.0    0.2    6.0
N    -5.6   -0.6    7.1
N    -7.2    0.3    5.7
H    -1.9   -2.2    5.4
H    -2.4   -3.0    3.9
H    -4.4   -1.9    4.9
H    -4.0   -1.1    3.4
H    -2.9    0.8    4.7
H    -3.2   -0.1    6.2
H    -5.2    1.1    4.4
H    -6.4   -0.8    7.7
H    -4.8   -0.1    7.7
H    -7.3    0.7    4.7
N     1.3   -1.3    3.5
C     2.6   -1.8    3.4
H     1.1   -0.3    3.2
H     3.0   -1.8    2.3
H     2.6   -2.8    3.8
H     3.3   -1.2    4.0
