          35
 sphere cut out from bulk 
C    -0.5    2.1   -0.2
C    -0.8    2.0    1.3
O    -0.6    3.0    2.0
H     0.5    2.3   -0.4
H    -1.1    2.9   -0.7
H    -0.8    1.1   -0.8
N    -1.3    0.8    1.7
C    -1.6    0.4    3.1
C    -3.2    0.2    3.3
O    -3.6   -0.9    3.7
H    -1.4    0.1    1.0
H    -1.3   -0.7    3.1
C    -1.0    1.1    4.2
C     0.5    1.1    4.3
C     1.2    2.2    5.1
N     0.9    3.5    4.5
C     0.8    4.6    5.2
N     0.3    5.7    4.5
N     1.1    4.6    6.5
H    -1.4    0.7    5.2
H    -1.3    2.2    4.2
H     0.9    1.1    3.3
H     0.8    0.1    4.7
H     2.2    2.0    5.2
H     0.7    2.2    6.2
H     0.5    3.4    3.6
H     0.5    6.6    4.9
H     0.4    5.6    3.5
H     0.9    5.5    6.9
N    -4.0    1.2    3.1
C    -3.8    2.6    2.6
H    -5.0    0.9    3.2
H    -4.5    3.2    3.0
H    -3.9    2.6    1.5
H    -2.8    2.9    2.9
