          35
 sphere cut out from bulk 
C    -0.5    0.1    0.2
C    -0.8   -0.1    1.7
O    -0.2   -0.7    2.5
H    -1.3    0.4   -0.4
H     0.0   -0.8   -0.1
H     0.3    0.9    0.2
N    -2.0    0.5    2.1
C    -2.4    0.7    3.5
C    -1.2    1.2    4.3
O    -0.6    2.2    3.9
H    -2.5    1.2    1.4
H    -3.1    1.5    3.5
C    -3.3   -0.5    4.0
C    -2.6   -1.9    3.9
C    -3.5   -3.0    4.5
N    -4.8   -3.2    3.8
C    -6.0   -2.5    4.0
N    -6.2   -2.1    5.3
N    -6.8   -2.1    3.1
H    -4.2   -0.5    3.4
H    -3.5   -0.3    5.0
H    -1.7   -2.0    4.4
H    -2.4   -2.1    2.8
H    -3.8   -2.8    5.5
H    -3.0   -4.0    4.5
H    -4.7   -3.4    2.8
H    -7.1   -1.7    5.4
H    -6.0   -2.8    6.0
H    -6.5   -2.3    2.1
N    -1.0    0.6    5.5
C     0.1    1.0    6.3
H    -1.4   -0.3    5.6
H    -0.1    0.7    7.4
H     0.3    2.0    6.2
H     1.1    0.4    6.0
