          35
 sphere cut out from bulk 
C     0.3    0.9    0.3
C     0.3    0.2    1.7
O     1.4   -0.3    2.1
H     0.8    1.9    0.5
H    -0.6    1.0   -0.1
H     1.0    0.3   -0.3
N    -0.8    0.2    2.4
C    -2.0    1.0    2.3
C    -2.8    0.9    1.0
O    -3.1    1.8    0.3
H    -0.7   -0.3    3.3
H    -2.7    0.6    3.1
C    -1.7    2.5    2.6
C    -1.2    2.7    4.0
C    -0.4    4.0    4.3
N     0.7    4.2    3.4
C     1.7    3.3    3.0
N     2.1    2.5    4.0
N     2.1    3.3    1.8
H    -2.7    3.1    2.5
H    -1.0    2.9    1.9
H    -0.5    1.8    4.3
H    -2.0    2.6    4.8
H    -0.0    4.0    5.3
H    -1.1    4.8    4.2
H     0.5    4.8    2.5
H     2.4    1.6    3.7
H     1.7    2.5    4.9
H     2.9    2.7    1.7
N    -3.1   -0.4    0.6
C    -2.9   -1.7    1.3
H    -3.6   -0.4   -0.3
H    -3.6   -2.4    0.9
H    -3.1   -1.6    2.4
H    -1.9   -2.0    1.2
