          35
 sphere cut out from bulk 
C    -1.2    0.3   -0.6
C    -0.5    0.3    0.7
O     0.7   -0.1    0.8
H    -0.6   -0.2   -1.4
H    -1.6    1.3   -0.9
H    -2.2   -0.4   -0.5
N    -1.1    0.7    1.8
C    -2.5    1.1    1.9
C    -2.6    2.1    3.1
O    -2.0    2.0    4.1
H    -0.6    0.8    2.7
H    -2.9    1.6    1.0
C    -3.4   -0.1    2.3
C    -4.9    0.2    2.2
C    -5.8   -1.1    2.3
N    -5.6   -2.0    1.2
C    -5.0   -3.2    1.4
N    -5.0   -4.0    0.2
N    -4.4   -3.5    2.5
H    -3.2   -0.5    3.2
H    -3.2   -0.9    1.5
H    -5.2    0.7    1.3
H    -5.2    0.8    3.0
H    -6.9   -0.8    2.4
H    -5.6   -1.6    3.2
H    -6.3   -2.0    0.5
H    -4.4   -4.8    0.2
H    -4.9   -3.5   -0.7
H    -3.9   -4.4    2.4
N    -3.5    3.2    2.9
C    -3.8    4.2    3.9
H    -4.0    3.2    2.0
H    -4.8    4.2    4.2
H    -3.6    5.2    3.5
H    -3.1    4.0    4.7
