          35
 sphere cut out from bulk 
C    -1.3    1.6   -0.2
C    -1.1    1.4    1.3
O    -0.7    2.2    2.0
H    -2.1    2.4   -0.3
H    -1.6    0.7   -0.7
H    -0.4    2.0   -0.7
N    -1.2    0.1    1.7
C    -0.9   -0.4    3.0
C    -0.7   -1.9    2.9
O    -1.0   -2.5    1.9
H    -1.4   -0.7    1.0
H     0.0    0.1    3.3
C    -2.0   -0.0    4.0
C    -3.3   -0.8    3.9
C    -4.3   -0.6    5.0
N    -3.8   -0.6    6.4
C    -3.4   -1.8    7.0
N    -2.7   -1.6    8.2
N    -3.4   -3.0    6.5
H    -2.2    1.1    3.9
H    -1.6   -0.1    5.1
H    -3.0   -1.9    3.9
H    -3.8   -0.7    2.9
H    -5.2   -1.3    4.9
H    -4.8    0.4    4.9
H    -3.4    0.2    6.7
H    -2.5   -2.4    8.6
H    -3.1   -0.9    8.8
H    -3.8   -3.0    5.6
N    -0.1   -2.5    4.0
C     0.3   -2.0    5.3
H    -0.1   -3.5    3.9
H    -0.5   -2.0    6.0
H     0.7   -0.9    5.2
H     1.1   -2.6    5.7
