          35
 sphere cut out from bulk 
C     3.7   -1.4    0.7
C     3.1   -0.5    1.7
O     3.8    0.2    2.5
H     4.3   -2.2    1.3
H     4.3   -0.9    0.1
H     2.9   -2.0    0.2
N     1.7   -0.4    1.8
C     1.0    0.5    2.7
C     0.9   -0.2    4.1
O    -0.2   -0.7    4.5
H     1.2   -1.1    1.2
H     1.6    1.4    2.8
C    -0.4    0.8    2.1
C    -1.2    1.9    2.9
C    -0.5    3.2    3.0
N    -1.4    4.2    3.7
C    -1.0    5.4    4.2
N     0.1    6.0    3.5
N    -1.4    6.1    5.2
H    -1.0   -0.1    2.0
H    -0.2    1.2    1.1
H    -1.4    1.5    3.9
H    -2.1    2.0    2.4
H    -0.2    3.6    2.0
H     0.5    3.1    3.6
H    -2.0    3.7    4.3
H     0.2    7.0    3.7
H     0.1    5.8    2.5
H    -2.1    5.5    5.7
N     2.0   -0.1    4.8
C     2.1   -0.7    6.1
H     2.8    0.3    4.3
H     2.8   -1.6    6.0
H     1.1   -0.9    6.5
H     2.6    0.0    6.8
