          35
 sphere cut out from bulk 
C    -0.6   -0.3    0.7
C    -0.8    0.0    2.1
O     0.1    0.3    2.9
H    -1.2    0.2   -0.0
H    -0.8   -1.4    0.5
H     0.5   -0.1    0.4
N    -2.1   -0.1    2.6
C    -3.4    0.1    2.0
C    -3.6   -0.8    0.7
O    -3.3   -1.9    0.7
H    -2.1    0.1    3.6
H    -4.2   -0.4    2.6
C    -3.8    1.6    1.9
C    -2.8    2.5    1.2
C    -2.8    4.0    1.8
N    -2.5    4.0    3.2
C    -1.2    4.2    3.7
N    -0.2    3.5    3.1
N    -0.9    5.0    4.7
H    -3.9    1.9    3.0
H    -4.8    1.7    1.5
H    -3.0    2.6    0.1
H    -1.8    2.1    1.2
H    -3.8    4.4    1.6
H    -2.0    4.6    1.2
H    -3.2    4.5    3.8
H     0.7    3.7    3.5
H    -0.4    2.5    3.0
H    -1.7    5.6    5.0
N    -4.0   -0.1   -0.4
C    -4.3   -0.8   -1.7
H    -4.2    0.9   -0.4
H    -3.6   -0.4   -2.5
H    -5.3   -0.6   -2.0
H    -4.1   -1.9   -1.5
