          35
 sphere cut out from bulk 
C    -0.7    0.0   -0.9
C    -0.3   -0.2    0.5
O     0.8   -0.3    0.9
H     0.1    0.6   -1.3
H    -1.6    0.5   -1.1
H    -0.7   -0.9   -1.4
N    -1.4   -0.5    1.4
C    -2.8   -0.2    1.2
C    -3.4   -1.1    0.1
O    -4.3   -0.6   -0.6
H    -1.0   -0.6    2.4
H    -3.3   -0.6    2.2
C    -3.2    1.3    1.1
C    -4.6    1.6    1.6
C    -5.3    2.7    0.7
N    -5.5    2.2   -0.6
C    -5.7    3.0   -1.7
N    -5.7    2.3   -2.9
N    -5.9    4.3   -1.7
H    -3.0    1.6    0.1
H    -2.4    1.9    1.8
H    -4.6    1.9    2.6
H    -5.2    0.7    1.6
H    -4.6    3.6    0.7
H    -6.2    3.0    1.2
H    -5.1    1.2   -0.8
H    -6.1    2.9   -3.6
H    -6.1    1.4   -2.9
H    -5.8    4.7   -0.8
N    -2.9   -2.3    0.0
C    -3.4   -3.2   -1.0
H    -2.1   -2.5    0.6
H    -3.6   -4.2   -0.5
H    -2.6   -3.4   -1.8
H    -4.3   -2.8   -1.5
