          35
 sphere cut out from bulk 
C    -1.3    0.3   -1.1
C    -1.2    0.1    0.3
O    -1.8   -0.9    0.9
H    -0.9   -0.6   -1.7
H    -0.7    1.1   -1.5
H    -2.3    0.4   -1.5
N    -0.5    1.0    1.1
C    -0.5    0.9    2.5
C    -1.5    1.9    3.0
O    -1.4    3.2    2.8
H    -0.2    1.8    0.6
H    -0.8   -0.1    2.8
C     0.9    1.2    3.0
C     1.1    1.0    4.6
C     1.2    2.2    5.5
N     0.0    3.1    5.5
C    -1.0    2.8    6.3
N    -2.1    3.8    6.1
N    -1.0    1.8    7.1
H     1.2    2.3    2.8
H     1.6    0.6    2.5
H     2.0    0.4    4.7
H     0.3    0.3    5.0
H     2.1    2.8    5.1
H     1.4    1.9    6.5
H    -0.2    3.6    4.6
H    -3.0    3.5    6.4
H    -2.1    4.3    5.3
H    -1.8    1.9    7.7
N    -2.6    1.4    3.7
C    -2.9    0.1    4.1
H    -3.3    2.2    4.0
H    -2.7   -0.6    3.3
H    -3.9   -0.0    4.4
H    -2.3   -0.2    5.0
