          35
 sphere cut out from bulk 
C    -1.8    2.3    0.5
C    -1.2    1.5    1.7
O    -0.0    1.6    2.0
H    -1.0    2.4   -0.2
H    -1.9    3.3    0.9
H    -2.7    1.9    0.1
N    -2.1    0.6    2.3
C    -1.8   -0.0    3.5
C    -1.1    1.0    4.5
O    -1.7    2.1    4.7
H    -3.0    0.8    2.0
H    -2.8   -0.2    4.0
C    -1.1   -1.4    3.4
C     0.2   -1.5    2.6
C     0.7   -2.9    2.5
N     2.0   -3.0    1.8
C     2.7   -4.1    1.6
N     3.8   -4.0    0.8
N     2.5   -5.3    2.2
H    -1.9   -2.1    2.9
H    -1.0   -1.8    4.4
H     1.0   -0.8    3.0
H    -0.0   -1.1    1.6
H    -0.0   -3.6    2.1
H     0.9   -3.3    3.6
H     2.0   -2.4    1.0
H     4.4   -4.8    0.8
H     4.3   -3.1    0.9
H     1.6   -5.3    2.7
N    -0.1    0.6    5.2
C     0.6    1.5    6.1
H     0.5   -0.2    4.9
H     1.2    0.9    6.9
H    -0.1    2.1    6.7
H     1.3    2.2    5.6
