          35
 sphere cut out from bulk 
C    -3.4    3.0    0.3
C    -2.5    2.8    1.5
O    -1.3    2.4    1.3
H    -4.4    3.4    0.6
H    -3.6    2.0   -0.1
H    -2.9    3.6   -0.4
N    -3.0    3.0    2.7
C    -2.4    2.7    4.0
C    -1.2    3.7    4.4
O    -1.2    4.3    5.5
H    -4.0    3.3    2.8
H    -3.1    3.0    4.8
C    -2.0    1.2    4.2
C    -1.4    0.9    5.6
C    -1.1   -0.6    5.8
N    -2.3   -1.4    5.9
C    -2.9   -2.1    4.8
N    -4.1   -2.7    5.1
N    -2.4   -2.2    3.6
H    -1.3    0.9    3.4
H    -2.9    0.6    4.0
H    -2.0    1.3    6.4
H    -0.4    1.4    5.7
H    -0.6   -0.7    6.8
H    -0.5   -1.0    5.0
H    -3.0   -1.2    6.6
H    -4.4   -3.3    4.3
H    -4.1   -3.2    6.0
H    -1.6   -1.7    3.4
N    -0.2    3.7    3.5
C     1.0    4.6    3.7
H    -0.3    3.2    2.6
H     1.9    4.0    3.7
H     0.9    5.0    4.7
H     1.0    5.4    3.0
