          35
 sphere cut out from bulk 
C    -0.8    1.5    0.9
C    -0.6    0.7    2.2
O     0.5    0.5    2.7
H    -1.8    1.6    0.5
H    -0.1    1.1    0.2
H    -0.4    2.5    1.2
N    -1.8    0.2    2.7
C    -2.1   -0.6    3.9
C    -2.6    0.1    5.2
O    -3.3   -0.6    5.9
H    -2.6    0.5    2.2
H    -3.0   -1.2    3.6
C    -1.0   -1.7    4.2
C     0.1   -1.4    5.2
C    -0.1   -1.5    6.7
N    -0.4   -0.2    7.4
C    -1.4    0.1    8.2
N    -1.9   -1.0    8.9
N    -1.8    1.3    8.3
H    -0.6   -2.0    3.2
H    -1.6   -2.5    4.6
H     0.6   -0.4    5.0
H     0.9   -2.1    4.9
H     0.7   -2.0    7.2
H    -1.0   -2.1    6.8
H     0.1    0.6    7.0
H    -3.0   -0.9    9.1
H    -1.7   -1.9    8.7
H    -2.4    1.4    9.1
N    -2.3    1.4    5.5
C    -1.3    2.2    4.9
H    -2.5    1.5    6.5
H    -1.0    3.0    5.7
H    -1.7    2.8    4.1
H    -0.4    1.7    4.6
