          35
 sphere cut out from bulk 
C    -1.1    1.6   -0.6
C    -1.4    0.3    0.1
O    -0.9   -0.8   -0.2
H    -1.1    2.5    0.1
H    -1.8    1.7   -1.4
H    -0.1    1.5   -1.0
N    -2.2    0.3    1.2
C    -2.7    1.4    2.0
C    -3.5    2.4    1.2
O    -3.5    3.6    1.5
H    -2.3   -0.6    1.7
H    -3.4    1.0    2.8
C    -1.5    2.1    2.8
C    -2.0    2.8    4.1
C    -1.0    3.7    4.7
N    -0.4    4.7    3.8
C    -1.0    5.9    3.5
N    -2.4    5.8    3.3
N    -0.3    7.0    3.5
H    -1.0    2.9    2.2
H    -0.8    1.3    3.1
H    -2.2    2.0    4.9
H    -2.9    3.3    3.9
H    -0.1    3.2    5.1
H    -1.4    4.2    5.6
H     0.6    4.9    3.9
H    -2.8    6.7    3.0
H    -2.7    5.0    2.7
H    -0.8    7.8    3.1
N    -4.3    1.9    0.3
C    -5.2    2.6   -0.5
H    -4.2    0.9    0.1
H    -6.2    2.2   -0.5
H    -4.9    2.6   -1.6
H    -5.3    3.6   -0.2
