          35
 sphere cut out from bulk 
C     0.6    0.8    0.4
C     0.3    0.5    1.9
O     1.2    0.5    2.7
H     1.0    1.8    0.3
H    -0.3    0.7   -0.2
H     1.3    0.1    0.1
N    -1.0    0.2    2.2
C    -1.4    0.0    3.6
C    -1.2   -1.5    4.0
O    -2.2   -2.3    4.1
H    -1.7    0.2    1.5
H    -0.7    0.6    4.2
C    -2.9    0.5    3.8
C    -3.1    2.0    3.5
C    -2.2    3.0    4.3
N    -2.2    2.7    5.8
C    -3.2    3.2    6.5
N    -2.9    3.1    7.9
N    -4.2    3.8    6.0
H    -3.1    0.3    4.9
H    -3.5   -0.1    3.3
H    -4.1    2.2    3.8
H    -3.0    2.2    2.5
H    -2.5    4.0    4.1
H    -1.1    2.8    4.0
H    -1.2    2.7    6.2
H    -3.7    3.2    8.5
H    -2.5    2.2    8.2
H    -4.9    4.0    6.7
N     0.1   -1.8    4.2
C     0.5   -3.2    4.4
H     0.8   -1.1    3.9
H     1.2   -3.2    5.2
H     1.0   -3.6    3.5
H    -0.4   -3.8    4.7
