          35
 sphere cut out from bulk 
C     1.2    1.1    1.2
C     0.4    0.0    1.9
O     0.9   -0.9    2.5
H     1.9    1.6    2.0
H     0.6    1.9    0.8
H     1.8    0.7    0.5
N    -1.0    0.2    1.9
C    -1.9   -0.9    2.4
C    -3.3   -0.8    1.8
O    -3.8   -1.7    1.2
H    -1.4    0.8    1.2
H    -1.5   -1.9    1.9
C    -1.9   -1.1    3.9
C    -1.5   -2.5    4.4
C    -2.6   -3.5    4.3
N    -2.9   -4.0    2.9
C    -3.1   -5.3    2.6
N    -3.6   -5.4    1.2
N    -3.0   -6.4    3.3
H    -2.9   -0.8    4.3
H    -1.1   -0.4    4.3
H    -1.3   -2.4    5.5
H    -0.6   -2.8    3.9
H    -3.5   -3.2    4.8
H    -2.3   -4.4    4.8
H    -3.3   -3.3    2.3
H    -3.5   -6.4    0.9
H    -3.2   -4.8    0.6
H    -2.8   -6.2    4.3
N    -3.9    0.5    1.9
C    -3.6    1.6    2.8
H    -4.8    0.4    1.5
H    -2.5    1.6    3.1
H    -4.2    1.5    3.7
H    -3.8    2.5    2.3
