          35
 sphere cut out from bulk 
C     0.1    0.6    0.1
C     0.2    0.1    1.5
O     1.3    0.2    2.1
H     1.0    1.3   -0.1
H    -0.8    1.2   -0.2
H     0.2   -0.2   -0.6
N    -0.9   -0.4    2.0
C    -2.3   -0.3    1.6
C    -2.6   -1.1    0.3
O    -1.8   -1.8   -0.2
H    -0.8   -0.7    3.0
H    -2.9   -0.8    2.4
C    -2.8    1.2    1.6
C    -4.0    1.5    2.5
C    -3.8    1.2    4.0
N    -2.5    1.7    4.6
C    -1.5    0.8    4.8
N    -0.2    1.5    4.8
N    -1.5   -0.4    5.1
H    -3.0    1.5    0.6
H    -1.9    1.8    2.0
H    -4.9    1.0    2.2
H    -4.2    2.6    2.4
H    -3.8    0.1    4.2
H    -4.7    1.6    4.6
H    -2.4    2.7    4.6
H     0.5    0.9    4.9
H    -0.1    2.1    4.1
H    -2.4   -0.8    5.3
N    -3.9   -0.8   -0.1
C    -4.4   -1.6   -1.3
H    -4.5   -0.2    0.3
H    -4.7   -0.8   -2.1
H    -5.3   -2.1   -1.0
H    -3.6   -2.2   -1.7
