          35
 sphere cut out from bulk 
C    -0.5    0.8    0.5
C    -0.7    1.2    1.9
O     0.2    1.7    2.6
H    -1.2    1.4   -0.2
H    -0.8   -0.3    0.3
H     0.5    1.0    0.2
N    -1.9    1.0    2.5
C    -3.1    0.3    1.9
C    -4.3    1.2    2.3
O    -5.1    0.8    3.1
H    -1.9    1.2    3.5
H    -3.0    0.4    0.8
C    -3.2   -1.1    2.4
C    -4.3   -2.0    1.9
C    -4.3   -2.3    0.4
N    -4.7   -1.2   -0.5
C    -3.9   -0.5   -1.3
N    -2.7   -1.2   -1.7
N    -4.0    0.7   -1.7
H    -3.2   -1.1    3.5
H    -2.2   -1.6    2.2
H    -5.3   -1.5    2.1
H    -4.3   -2.9    2.5
H    -5.0   -3.2    0.2
H    -3.3   -2.7    0.1
H    -5.5   -0.7   -0.2
H    -2.2   -0.6   -2.4
H    -2.8   -2.1   -2.0
H    -4.9    1.1   -1.2
N    -4.5    2.4    1.7
C    -3.6    3.1    0.8
H    -5.3    2.9    2.0
H    -2.7    3.5    1.3
H    -4.1    3.9    0.3
H    -3.2    2.4   -0.0
