          35
 sphere cut out from bulk 
C    -0.4    0.7   -0.3
C    -0.3    0.1    1.1
O     0.4   -0.9    1.4
H    -0.9   -0.1   -0.8
H     0.6    0.8   -0.7
H    -0.9    1.7   -0.3
N    -1.0    0.8    2.1
C    -1.3    0.5    3.5
C    -0.6    1.3    4.6
O    -1.2    1.8    5.5
H    -1.5    1.6    1.8
H    -2.3    0.8    3.6
C    -1.2   -1.1    3.8
C    -2.2   -1.9    2.9
C    -1.7   -3.3    2.7
N    -2.5   -4.0    1.7
C    -2.4   -3.7    0.3
N    -3.5   -4.3   -0.4
N    -1.5   -3.0   -0.3
H    -1.5   -1.2    4.9
H    -0.2   -1.4    3.7
H    -2.3   -1.4    1.9
H    -3.2   -1.9    3.4
H    -1.7   -3.9    3.6
H    -0.7   -3.3    2.3
H    -3.5   -4.2    2.0
H    -3.2   -4.2   -1.4
H    -3.7   -5.2   -0.2
H    -0.9   -2.5    0.4
N     0.8    1.4    4.5
C     1.8    1.0    3.6
H     1.1    2.0    5.3
H     2.0    1.7    2.8
H     2.7    0.8    4.1
H     1.5    0.0    3.1
