          35
 sphere cut out from bulk 
C     0.1   -0.0    0.2
C     0.5    0.5    1.6
O     1.6    0.5    1.9
H     0.9   -0.2   -0.4
H    -0.6    0.7   -0.3
H    -0.5   -0.9    0.3
N    -0.5    0.9    2.4
C    -2.0    0.8    2.2
C    -2.6    2.1    1.5
O    -3.8    2.1    1.2
H    -0.2    1.2    3.3
H    -2.2   -0.0    1.6
C    -2.7    0.6    3.5
C    -2.6    1.7    4.6
C    -3.9    2.5    4.9
N    -4.4    3.3    3.9
C    -4.0    4.7    3.8
N    -4.6    5.3    2.7
N    -3.2    5.3    4.5
H    -2.3   -0.3    4.0
H    -3.8    0.4    3.3
H    -1.9    2.5    4.3
H    -2.2    1.3    5.5
H    -3.8    3.0    5.8
H    -4.7    1.7    5.1
H    -4.7    2.9    3.0
H    -4.4    6.3    2.7
H    -5.6    5.1    2.5
H    -2.7    4.7    5.2
N    -1.7    3.1    1.2
C    -2.1    4.3    0.6
H    -0.8    3.0    1.6
H    -1.5    4.5   -0.3
H    -1.9    5.2    1.3
H    -3.2    4.3    0.4
