          35
 sphere cut out from bulk 
C    -0.1    0.8    0.9
C    -0.7    1.7    2.0
O    -0.0    2.4    2.7
H    -0.4   -0.2    1.0
H     1.0    0.9    0.9
H    -0.5    1.2   -0.1
N    -2.1    1.7    2.1
C    -3.1    0.9    1.4
C    -4.3    1.8    1.2
O    -4.8    2.3    2.2
H    -2.5    2.3    2.9
H    -2.7    0.7    0.4
C    -3.4   -0.4    2.1
C    -4.3   -1.4    1.4
C    -5.8   -1.1    1.6
N    -6.2   -1.1    2.9
C    -7.3   -0.4    3.4
N    -7.4    0.9    2.9
N    -8.1   -1.0    4.3
H    -3.8   -0.1    3.1
H    -2.4   -0.9    2.3
H    -4.1   -2.4    1.8
H    -4.1   -1.4    0.3
H    -6.4   -1.9    0.9
H    -6.1   -0.1    1.1
H    -6.3   -2.1    3.3
H    -8.1    1.5    3.4
H    -6.5    1.4    2.8
H    -8.8   -0.3    4.7
N    -4.8    1.9   -0.0
C    -6.0    2.6   -0.3
H    -4.4    1.4   -0.8
H    -6.1    2.8   -1.4
H    -6.0    3.6    0.2
H    -6.9    2.1    0.1
