          35
 sphere cut out from bulk 
C     2.8   -0.3    0.9
C     1.8   -0.5    2.0
O     2.0   -1.0    3.1
H     2.4    0.2    0.0
H     3.0   -1.3    0.6
H     3.7    0.1    1.3
N     0.5    0.2    1.8
C    -0.6    0.0    2.7
C    -1.6   -1.0    2.1
O    -2.2   -0.8    1.1
H     0.3    0.5    0.8
H    -0.1   -0.3    3.6
C    -1.3    1.4    2.9
C    -0.4    2.4    3.6
C    -1.1    3.8    3.7
N    -2.3    3.9    4.5
C    -2.3    3.8    5.9
N    -3.6    3.6    6.4
N    -1.3    3.8    6.7
H    -2.2    1.2    3.5
H    -1.7    1.7    1.9
H     0.5    2.6    3.0
H    -0.1    2.1    4.6
H    -1.3    4.2    2.7
H    -0.4    4.5    4.2
H    -3.1    3.5    4.0
H    -3.6    3.7    7.4
H    -4.3    4.2    6.0
H    -0.4    3.8    6.2
N    -1.7   -2.1    2.8
C    -1.1   -2.6    4.0
H    -2.4   -2.8    2.4
H    -1.2   -3.7    4.1
H    -1.5   -2.1    4.9
H     0.0   -2.4    4.0
