          35
 sphere cut out from bulk 
C    -0.6   -0.6   -0.8
C    -0.3    0.1    0.5
O     0.7    0.7    0.8
H     0.3   -0.3   -1.5
H    -1.5   -0.2   -1.3
H    -0.6   -1.6   -0.7
N    -1.3   -0.0    1.5
C    -2.6   -0.8    1.4
C    -3.8    0.1    0.8
O    -4.9   -0.5    0.7
H    -1.1    0.4    2.4
H    -2.4   -1.6    0.6
C    -3.0   -1.4    2.7
C    -2.0   -2.5    3.2
C    -2.4   -3.2    4.5
N    -3.6   -4.0    4.3
C    -4.8   -3.9    5.1
N    -5.0   -2.5    5.5
N    -5.6   -4.8    5.4
H    -3.9   -1.9    2.6
H    -3.0   -0.6    3.5
H    -1.0   -2.1    3.3
H    -1.8   -3.2    2.4
H    -2.6   -2.5    5.2
H    -1.6   -3.8    4.8
H    -3.5   -5.0    4.0
H    -5.9   -2.5    6.0
H    -4.9   -1.8    4.8
H    -5.2   -5.7    5.2
N    -3.5    1.4    0.6
C    -4.5    2.3    0.1
H    -2.6    1.7    0.8
H    -4.3    2.7   -0.9
H    -4.7    3.1    0.8
H    -5.5    1.7   -0.0
