          35
 sphere cut out from bulk 
C    -0.1    1.0    0.5
C    -0.1   -0.4    1.1
O     0.9   -1.1    1.2
H    -0.5    1.0   -0.5
H     1.0    1.3    0.4
H    -0.6    1.8    1.1
N    -1.3   -0.8    1.7
C    -2.6   -0.3    1.4
C    -3.6   -0.2    2.6
O    -4.6    0.6    2.4
H    -1.2   -1.8    1.9
H    -2.5    0.8    1.1
C    -3.3   -1.0    0.2
C    -3.4   -2.5    0.3
C    -3.3   -3.3   -1.0
N    -2.2   -2.9   -1.9
C    -0.9   -2.5   -1.5
N    -0.3   -3.4   -0.6
N    -0.4   -1.5   -2.0
H    -2.7   -0.8   -0.7
H    -4.3   -0.6    0.0
H    -4.3   -2.8    0.9
H    -2.6   -2.9    1.0
H    -4.2   -3.2   -1.5
H    -3.2   -4.4   -0.8
H    -2.5   -2.2   -2.6
H     0.3   -3.0    0.0
H    -0.8   -4.2   -0.2
H     0.6   -1.4   -1.8
N    -3.5   -0.9    3.7
C    -2.5   -1.9    4.1
H    -4.2   -0.7    4.4
H    -2.5   -2.8    3.5
H    -2.8   -2.3    5.1
H    -1.5   -1.5    4.2
