          35
 sphere cut out from bulk 
C    -0.7    0.0   -0.7
C    -0.5   -0.2    0.8
O     0.6   -0.3    1.3
H    -1.8   -0.0   -1.0
H    -0.2   -0.8   -1.2
H    -0.3    1.0   -1.0
N    -1.7   -0.2    1.5
C    -1.6   -0.3    3.0
C    -1.5   -1.8    3.4
O    -2.5   -2.5    3.7
H    -2.6   -0.2    1.0
H    -0.7    0.1    3.3
C    -2.7    0.5    3.7
C    -4.1   -0.1    4.1
C    -5.0   -0.6    3.0
N    -5.4    0.4    2.1
C    -4.9    0.5    0.8
N    -5.0    1.8    0.2
N    -4.3   -0.4    0.1
H    -2.9    1.4    3.1
H    -2.3    0.9    4.6
H    -4.6    0.7    4.7
H    -3.9   -0.9    4.8
H    -5.9   -1.1    3.5
H    -4.5   -1.4    2.5
H    -5.7    1.3    2.5
H    -4.9    1.7   -0.8
H    -5.8    2.3    0.5
H    -4.3   -1.3    0.6
N    -0.2   -2.3    3.2
C     0.1   -3.7    3.4
H     0.4   -1.7    2.8
H     1.0   -3.8    3.9
H     0.1   -4.2    2.4
H    -0.7   -4.2    4.0
