          35
 sphere cut out from bulk 
C    -0.5   -1.4    1.6
C     0.3   -0.1    1.5
O     1.5   -0.1    1.7
H     0.2   -2.2    1.6
H    -1.2   -1.6    0.7
H    -1.1   -1.4    2.5
N    -0.4    1.0    1.1
C    -1.8    1.2    1.2
C    -2.1    2.5    0.3
O    -1.2    3.3    0.1
H     0.2    1.9    1.1
H    -2.3    0.4    0.8
C    -2.3    1.5    2.6
C    -1.5    2.6    3.4
C    -0.4    1.9    4.3
N     0.6    2.8    4.7
C     1.5    3.5    3.9
N     1.8    2.8    2.7
N     1.9    4.7    4.2
H    -2.4    0.6    3.2
H    -3.4    1.9    2.5
H    -2.2    3.1    4.1
H    -1.1    3.3    2.7
H     0.1    1.1    3.7
H    -0.8    1.4    5.2
H     0.3    3.5    5.5
H     2.6    3.2    2.2
H     1.9    1.8    2.8
H     2.6    5.1    3.6
N    -3.3    2.5   -0.2
C    -3.8    3.6   -1.1
H    -4.0    1.8   -0.1
H    -4.7    4.1   -0.6
H    -4.1    3.3   -2.1
H    -3.0    4.4   -1.1
