          35
 sphere cut out from bulk 
C     1.2   -0.9    0.7
C     0.8   -2.2    1.3
O     1.4   -3.3    1.1
H     2.3   -0.9    0.5
H     1.0   -0.1    1.4
H     0.7   -0.7   -0.2
N    -0.3   -2.3    2.0
C    -1.4   -1.3    2.1
C    -2.4   -1.8    3.2
O    -2.4   -3.0    3.6
H    -0.6   -3.2    2.4
H    -1.0   -0.3    2.4
C    -2.2   -1.1    0.8
C    -2.1   -2.3   -0.2
C    -2.7   -3.6    0.2
N    -2.4   -4.7   -0.7
C    -1.6   -5.8   -0.4
N    -0.7   -5.6    0.6
N    -1.9   -7.0   -0.9
H    -1.8   -0.2    0.3
H    -3.3   -0.9    1.0
H    -1.1   -2.5   -0.5
H    -2.6   -2.0   -1.2
H    -3.8   -3.5    0.3
H    -2.4   -3.9    1.2
H    -3.1   -5.0   -1.4
H    -0.1   -6.4    0.8
H    -0.1   -4.8    0.5
H    -1.2   -7.7   -0.7
N    -3.2   -0.8    3.8
C    -4.2   -1.1    4.8
H    -3.1    0.1    3.4
H    -4.1   -2.2    5.0
H    -5.2   -0.9    4.4
H    -4.0   -0.6    5.7
