          35
 sphere cut out from bulk 
C     0.1    0.6   -0.2
C     0.4    0.4    1.3
O     1.6    0.5    1.7
H     0.9    0.1   -0.7
H    -0.0    1.6   -0.4
H    -0.8    0.0   -0.5
N    -0.6    0.2    2.2
C    -2.1    0.3    2.1
C    -2.7   -1.0    1.5
O    -2.1   -1.6    0.6
H    -0.3    0.2    3.2
H    -2.4    0.3    3.2
C    -2.7    1.6    1.5
C    -2.8    2.8    2.4
C    -1.5    3.4    3.0
N    -1.1    2.8    4.2
C     0.1    2.1    4.4
N     1.2    2.6    3.8
N     0.0    1.0    5.1
H    -3.7    1.3    1.1
H    -2.1    1.8    0.6
H    -3.5    2.6    3.2
H    -3.3    3.6    1.8
H    -1.7    4.5    3.1
H    -0.7    3.4    2.2
H    -1.8    2.5    4.8
H     1.8    1.9    3.2
H     1.1    3.5    3.2
H     1.0    0.7    5.3
N    -3.9   -1.4    1.9
C    -4.7   -0.8    3.0
H    -4.3   -2.2    1.4
H    -5.6   -1.4    3.2
H    -5.0    0.2    2.9
H    -4.1   -0.9    4.0
