          35
 sphere cut out from bulk 
C    -0.1   -0.0   -0.1
C     0.1   -0.0    1.4
O     1.2   -0.1    2.0
H     0.9    0.0   -0.5
H    -0.6    0.9   -0.4
H    -0.6   -0.9   -0.4
N    -1.1    0.1    2.2
C    -2.5    0.1    1.8
C    -3.2    1.2    2.6
O    -3.8    1.0    3.6
H    -0.9   -0.0    3.2
H    -2.5    0.3    0.7
C    -3.2   -1.3    2.0
C    -2.6   -2.4    1.1
C    -3.3   -3.7    1.4
N    -4.8   -3.7    1.1
C    -5.7   -3.8    2.0
N    -7.0   -3.9    1.5
N    -5.4   -3.8    3.3
H    -4.2   -1.1    1.8
H    -3.1   -1.5    3.1
H    -1.6   -2.5    1.4
H    -2.7   -2.1    0.1
H    -3.3   -4.0    2.5
H    -2.8   -4.5    0.8
H    -5.0   -4.1    0.2
H    -7.8   -3.8    2.2
H    -7.2   -3.3    0.7
H    -6.2   -3.7    3.9
N    -3.0    2.5    2.1
C    -2.2    3.0    1.0
H    -3.4    3.2    2.7
H    -2.5    2.5    0.1
H    -1.1    2.8    1.2
H    -2.4    4.0    0.9
