          35
 sphere cut out from bulk 
C    -0.8   -2.4    0.4
C    -1.0   -1.8    1.8
O    -1.1   -2.5    2.8
H     0.1   -3.0    0.3
H    -0.8   -1.7   -0.4
H    -1.7   -3.1    0.2
N    -0.9   -0.5    1.8
C    -1.1    0.2    3.1
C    -1.7    1.6    2.7
O    -1.5    2.1    1.6
H    -0.9    0.1    1.0
H    -1.9   -0.3    3.7
C     0.2    0.3    3.9
C     1.3    1.1    3.2
C     1.3    2.6    3.5
N     2.4    3.4    2.8
C     2.3    3.6    1.4
N     1.1    3.7    0.8
N     3.5    3.8    0.8
H     0.5   -0.7    4.1
H    -0.1    0.8    4.9
H     1.3    0.9    2.1
H     2.3    0.7    3.6
H     1.5    2.8    4.6
H     0.4    3.0    3.3
H     3.3    3.2    3.1
H     0.3    3.2    1.2
H     1.1    3.7   -0.2
H     3.3    4.0   -0.1
N    -2.4    2.2    3.7
C    -2.9    3.6    3.6
H    -2.5    1.7    4.6
H    -2.7    4.0    2.6
H    -2.3    4.3    4.3
H    -3.9    3.6    3.8
