          35
 sphere cut out from bulk 
C    -1.7    1.7    0.6
C    -0.9    0.5    0.9
O    -0.1   -0.0    0.1
H    -2.7    1.6    0.9
H    -1.7    1.8   -0.5
H    -1.3    2.6    1.0
N    -1.0   -0.0    2.2
C    -1.7    0.5    3.3
C    -1.3    1.9    3.9
O    -2.2    2.4    4.6
H    -0.4   -0.8    2.3
H    -2.8    0.6    3.0
C    -1.8   -0.6    4.4
C    -0.5   -0.8    5.3
C     0.8   -1.4    4.8
N     1.8   -0.5    4.2
C     1.9   -0.2    2.8
N     1.9   -1.3    2.0
N     2.1    1.0    2.5
H    -2.0   -1.6    4.0
H    -2.6   -0.3    5.1
H    -0.8   -1.4    6.2
H    -0.2    0.2    5.8
H     0.5   -2.2    4.0
H     1.3   -2.0    5.6
H     1.9    0.3    4.7
H     1.5   -1.1    1.1
H     1.9   -2.2    2.3
H     2.4    1.1    1.5
N    -0.1    2.3    3.6
C     0.3    3.6    4.2
H     0.6    1.8    3.1
H     1.4    3.7    4.0
H     0.2    3.6    5.3
H    -0.3    4.5    3.8
