          35
 sphere cut out from bulk 
C    -0.1   -0.3    0.0
C    -0.1    0.1    1.5
O     0.9    0.4    2.1
H     0.9   -0.3   -0.3
H    -0.7    0.3   -0.6
H    -0.5   -1.3   -0.1
N    -1.4    0.1    2.1
C    -2.7   -0.2    1.5
C    -3.7    0.7    2.3
O    -3.4    1.2    3.4
H    -1.4    0.6    3.0
H    -2.7    0.1    0.5
C    -3.0   -1.7    1.6
C    -3.3   -2.2    3.0
C    -3.8   -3.6    3.1
N    -4.9   -3.9    2.1
C    -6.2   -3.4    2.2
N    -7.0   -3.6    1.1
N    -6.7   -2.6    3.2
H    -2.2   -2.2    1.2
H    -3.9   -1.8    1.0
H    -4.0   -1.5    3.5
H    -2.4   -2.1    3.6
H    -4.1   -3.9    4.1
H    -3.0   -4.3    2.8
H    -4.6   -4.2    1.2
H    -7.9   -3.3    1.2
H    -6.9   -4.5    0.8
H    -6.0   -2.4    3.9
N    -4.9    0.8    1.8
C    -5.5    0.3    0.6
H    -5.6    1.3    2.5
H    -6.3    0.9    0.2
H    -6.0   -0.7    0.8
H    -4.8    0.2   -0.2
