          35
 sphere cut out from bulk 
C    -0.4    1.7   -0.1
C    -0.2    0.6    0.8
O     0.5   -0.4    0.6
H    -0.7    1.4   -1.1
H     0.6    2.2   -0.3
H    -1.1    2.5    0.2
N    -1.0    0.6    2.0
C    -0.9   -0.4    3.0
C    -2.4   -0.7    3.5
O    -2.8   -0.3    4.6
H    -1.5    1.5    2.1
H    -0.5   -1.3    2.5
C     0.0    0.1    4.1
C     0.2   -0.9    5.3
C     0.6   -2.4    4.9
N    -0.6   -3.2    4.5
C    -0.8   -3.9    3.4
N    -2.0   -4.6    3.4
N    -0.0   -3.9    2.3
H    -0.4    1.0    4.6
H     1.0    0.3    3.7
H    -0.7   -1.0    5.9
H     1.1   -0.6    5.9
H     1.1   -2.9    5.7
H     1.3   -2.4    4.0
H    -1.4   -3.1    5.1
H    -2.0   -5.2    2.6
H    -2.1   -5.1    4.2
H     0.8   -3.3    2.3
N    -3.1   -1.4    2.6
C    -2.8   -1.9    1.3
H    -4.1   -1.6    3.0
H    -3.5   -2.7    1.0
H    -1.8   -2.3    1.2
H    -2.9   -1.1    0.5
