          35
 sphere cut out from bulk 
C    -0.4    1.8    0.4
C    -0.8    0.9    1.6
O    -0.5    1.3    2.8
H    -0.7    2.8    0.6
H    -0.8    1.4   -0.5
H     0.7    1.8    0.4
N    -1.5   -0.1    1.4
C    -1.9   -1.1    2.4
C    -1.7   -2.5    1.7
O    -1.9   -2.7    0.5
H    -1.7   -0.5    0.4
H    -1.2   -1.0    3.2
C    -3.3   -1.0    2.9
C    -3.7    0.3    3.6
C    -3.2    0.4    5.1
N    -1.8    0.3    5.2
C    -1.1    0.3    6.5
N    -1.9   -0.1    7.6
N     0.1    0.7    6.7
H    -3.6   -1.9    3.5
H    -4.0   -1.1    2.0
H    -4.7    0.5    3.6
H    -3.2    1.2    3.1
H    -3.7   -0.5    5.6
H    -3.6    1.3    5.6
H    -1.2    0.7    4.5
H    -1.3   -0.2    8.4
H    -2.5   -0.8    7.4
H     0.5    1.1    5.8
N    -1.4   -3.5    2.6
C    -1.3   -4.9    2.2
H    -1.2   -3.3    3.6
H    -2.0   -5.5    2.7
H    -0.2   -5.3    2.4
H    -1.5   -5.0    1.1
