          35
 sphere cut out from bulk 
C    -0.0    1.8    0.8
C     0.1    0.9    2.1
O     1.1    0.9    2.8
H    -0.9    2.4    0.8
H     0.0    1.2   -0.1
H     0.8    2.5    0.8
N    -1.0    0.0    2.3
C    -2.2   -0.2    1.5
C    -3.3    0.8    1.8
O    -4.3    0.8    1.1
H    -0.8   -0.6    3.1
H    -1.9   -0.0    0.5
C    -2.7   -1.6    1.6
C    -3.2   -2.0    3.0
C    -3.8   -3.4    3.1
N    -2.7   -4.4    2.8
C    -3.0   -5.8    2.7
N    -4.2   -6.1    2.2
N    -2.0   -6.6    3.0
H    -1.9   -2.3    1.3
H    -3.5   -1.7    0.9
H    -4.0   -1.3    3.4
H    -2.4   -1.9    3.8
H    -4.5   -3.5    2.3
H    -4.2   -3.6    4.1
H    -1.9   -4.3    3.3
H    -4.5   -7.1    2.3
H    -5.0   -5.5    2.4
H    -2.2   -7.6    2.7
N    -3.1    1.6    2.9
C    -4.1    2.6    3.3
H    -2.2    1.6    3.4
H    -4.5    2.5    4.3
H    -5.0    2.5    2.6
H    -3.7    3.6    3.2
