          35
 sphere cut out from bulk 
C     0.1    0.2    0.2
C     0.0    0.2    1.7
O     0.9    0.5    2.4
H     1.1   -0.1   -0.1
H    -0.0    1.3   -0.1
H    -0.7   -0.4   -0.3
N    -1.2   -0.2    2.2
C    -1.6   -0.0    3.6
C    -1.2    1.4    4.1
O    -1.5    2.4    3.4
H    -2.0   -0.2    1.5
H    -2.7    0.0    3.6
C    -1.2   -1.2    4.5
C     0.2   -1.7    4.5
C     0.5   -2.8    5.6
N    -0.2   -4.0    5.4
C    -1.4   -4.3    6.0
N    -2.0   -5.5    5.6
N    -1.8   -3.5    7.0
H    -1.8   -2.1    4.1
H    -1.6   -1.1    5.5
H     0.9   -0.8    4.7
H     0.5   -2.0    3.5
H     0.2   -2.4    6.6
H     1.6   -3.0    5.6
H    -0.1   -4.5    4.4
H    -2.7   -5.8    6.2
H    -1.3   -6.3    5.4
H    -2.6   -4.0    7.5
N    -0.6    1.5    5.3
C    -0.2    2.8    5.9
H    -0.3    0.6    5.8
H    -0.3    2.8    7.0
H    -0.8    3.5    5.4
H     0.9    2.9    5.7
