          35
 sphere cut out from bulk 
C    -1.1   -0.1   -0.2
C    -1.0   -0.6    1.2
O    -0.1   -1.4    1.5
H    -0.9   -0.9   -0.9
H    -0.4    0.7   -0.4
H    -2.1    0.3   -0.5
N    -1.9   -0.1    2.1
C    -1.8   -0.2    3.5
C    -0.8    0.8    4.1
O     0.2    1.2    3.4
H    -2.5    0.7    1.7
H    -2.8    0.2    3.9
C    -1.7   -1.7    4.0
C    -0.8   -2.0    5.1
C     0.7   -1.9    4.7
N     1.5   -1.4    5.8
C     2.7   -0.6    5.7
N     2.8    0.0    4.5
N     3.6   -0.5    6.6
H    -1.4   -2.3    3.1
H    -2.7   -2.0    4.2
H    -1.0   -3.1    5.4
H    -0.9   -1.4    6.0
H     0.8   -1.3    3.9
H     1.1   -2.9    4.4
H     1.6   -1.9    6.7
H     2.0    0.4    4.0
H     3.6    0.7    4.5
H     3.5   -1.1    7.3
N    -0.9    1.1    5.4
C     0.0    1.9    6.1
H    -1.7    0.7    5.9
H    -0.5    2.6    6.8
H     0.6    2.5    5.4
H     0.7    1.2    6.7
