          35
 sphere cut out from bulk 
C     0.0    0.7    0.3
C    -0.3    0.8    1.8
O     0.6    1.1    2.6
H     1.1    0.9    0.1
H    -0.6    1.4   -0.3
H    -0.2   -0.3   -0.1
N    -1.6    0.6    2.2
C    -2.7    0.2    1.3
C    -3.2    1.3    0.4
O    -3.7    1.0   -0.7
H    -1.7    0.6    3.2
H    -2.4   -0.6    0.7
C    -3.8   -0.2    2.3
C    -5.2   -0.7    1.6
C    -6.2   -1.3    2.6
N    -6.5   -0.5    3.7
C    -7.4    0.7    3.6
N    -7.5    1.4    4.8
N    -7.9    0.9    2.4
H    -4.0    0.6    3.0
H    -3.4   -1.1    2.9
H    -5.0   -1.4    0.8
H    -5.6    0.2    1.1
H    -5.8   -2.2    3.0
H    -7.1   -1.5    2.0
H    -5.9   -0.4    4.5
H    -8.2    2.1    4.7
H    -7.6    0.8    5.6
H    -8.6    1.7    2.5
N    -3.1    2.6    0.8
C    -3.6    3.7    0.1
H    -2.6    2.7    1.7
H    -4.3    4.3    0.7
H    -4.0    3.4   -0.8
H    -2.7    4.4   -0.2
