          35
 sphere cut out from bulk 
C    -1.7   -1.6    0.1
C    -1.1   -1.3    1.4
O    -0.3   -2.0    2.0
H    -2.2   -2.5    0.1
H    -0.8   -1.7   -0.6
H    -2.4   -0.8   -0.3
N    -1.5   -0.1    2.0
C    -0.9    0.4    3.3
C    -1.7   -0.2    4.5
O    -2.5    0.5    5.1
H    -2.1    0.5    1.5
H     0.1    0.1    3.3
C    -1.0    1.9    3.3
C    -0.1    2.5    4.4
C    -0.2    4.0    4.6
N     0.1    4.8    3.4
C    -0.8    5.1    2.4
N    -2.1    5.4    2.7
N    -0.3    5.1    1.1
H    -2.0    2.3    3.5
H    -0.6    2.3    2.3
H     1.0    2.3    4.2
H    -0.3    2.0    5.4
H     0.4    4.4    5.4
H    -1.2    4.3    4.9
H     1.0    4.7    3.0
H    -2.8    5.2    2.0
H    -2.4    5.1    3.6
H    -1.0    5.5    0.5
N    -1.4   -1.5    4.7
C    -2.1   -2.3    5.7
H    -0.8   -1.9    4.0
H    -1.4   -2.9    6.2
H    -2.9   -3.0    5.2
H    -2.6   -1.6    6.3
