          35
 sphere cut out from bulk 
C    -0.5   -1.4    1.6
C    -0.1    0.0    1.4
O     1.1    0.4    1.3
H    -1.1   -1.6    2.5
H     0.4   -2.0    1.7
H    -1.0   -1.8    0.7
N    -1.1    0.9    1.2
C    -2.5    0.7    1.4
C    -3.2    1.8    0.5
O    -2.8    2.9    0.5
H    -0.8    1.9    1.1
H    -2.8   -0.3    1.0
C    -3.0    0.8    2.8
C    -4.5    0.4    3.0
C    -4.9    0.3    4.5
N    -4.1   -0.7    5.3
C    -4.2   -2.0    5.1
N    -3.3   -2.8    5.8
N    -5.0   -2.5    4.3
H    -2.8    1.9    3.2
H    -2.4    0.2    3.4
H    -4.7   -0.5    2.6
H    -5.1    1.2    2.6
H    -5.9   -0.0    4.6
H    -4.8    1.3    5.0
H    -3.2   -0.3    5.6
H    -3.4   -3.8    5.8
H    -3.1   -2.4    6.8
H    -5.1   -3.5    4.3
N    -4.3    1.3   -0.2
C    -5.1    2.2   -1.0
H    -4.6    0.4   -0.1
H    -5.2    1.9   -2.0
H    -4.7    3.2   -1.0
H    -6.1    2.3   -0.6
