          35
 sphere cut out from bulk 
C    -2.1    1.8   -2.0
C    -1.5    1.8   -0.6
O    -1.0    2.9   -0.1
H    -1.6    1.0   -2.6
H    -3.2    1.5   -1.9
H    -2.0    2.7   -2.5
N    -1.5    0.7    0.1
C    -2.1   -0.6   -0.2
C    -3.6   -0.7   -0.3
O    -4.1   -1.6   -1.0
H    -1.1    0.8    1.0
H    -1.8   -0.9   -1.3
C    -1.5   -1.8    0.6
C    -1.8   -1.7    2.1
C    -1.2   -2.9    2.9
N     0.3   -2.8    3.0
C     1.0   -3.6    2.2
N     2.4   -3.3    2.3
N     0.5   -4.4    1.3
H    -0.4   -1.8    0.5
H    -1.8   -2.7    0.2
H    -2.9   -1.8    2.2
H    -1.5   -0.8    2.6
H    -1.5   -3.8    2.5
H    -1.6   -2.8    4.0
H     0.7   -2.0    3.3
H     3.0   -4.0    1.9
H     2.7   -3.2    3.3
H     1.2   -5.0    0.9
N    -4.4    0.1    0.5
C    -4.1    1.2    1.5
H    -5.4   -0.1    0.3
H    -3.7    2.1    1.0
H    -3.4    0.8    2.2
H    -5.0    1.4    2.0
