          35
 sphere cut out from bulk 
C     0.1    1.1    0.1
C     0.3    0.7    1.5
O     1.4    0.7    2.0
H    -0.5    2.0   -0.0
H    -0.5    0.3   -0.5
H     1.0    1.2   -0.4
N    -0.8    0.5    2.3
C    -2.2    0.6    1.9
C    -3.0    0.9    3.2
O    -2.6    0.6    4.3
H    -0.7    0.4    3.3
H    -2.4    1.4    1.2
C    -2.8   -0.7    1.2
C    -3.2   -1.8    2.2
C    -2.1   -2.5    3.0
N    -2.5   -3.6    3.9
C    -3.2   -3.4    5.0
N    -2.9   -2.1    5.7
N    -3.9   -4.3    5.5
H    -2.0   -1.1    0.5
H    -3.7   -0.4    0.6
H    -3.7   -2.6    1.6
H    -4.0   -1.5    2.9
H    -1.5   -1.8    3.5
H    -1.4   -3.0    2.2
H    -2.8   -4.4    3.4
H    -2.6   -1.3    5.2
H    -3.5   -1.9    6.4
H    -4.3   -4.1    6.4
N    -4.2    1.5    3.0
C    -5.0    1.9    1.8
H    -4.8    1.6    3.9
H    -5.6    2.7    2.0
H    -5.5    1.1    1.4
H    -4.2    2.2    1.1
