          35
 sphere cut out from bulk 
C    -1.5    1.0   -0.3
C    -1.0    0.2    0.9
O    -0.0   -0.6    0.7
H    -1.9    0.3   -1.1
H    -0.7    1.6   -0.8
H    -2.3    1.7   -0.1
N    -1.6    0.5    2.1
C    -1.4   -0.1    3.4
C    -0.7    0.8    4.4
O    -1.2    0.9    5.5
H    -2.3    1.2    2.0
H    -2.4   -0.2    3.8
C    -0.8   -1.6    3.4
C    -0.8   -2.2    4.8
C     0.6   -2.6    5.3
N     1.6   -1.5    5.2
C     1.9   -0.7    6.2
N     0.9   -0.5    7.2
N     3.1   -0.1    6.2
H     0.2   -1.6    2.9
H    -1.5   -2.2    2.7
H    -1.4   -3.2    4.8
H    -1.3   -1.6    5.5
H     1.0   -3.4    4.7
H     0.5   -2.9    6.3
H     2.3   -1.7    4.5
H     1.2    0.2    7.9
H     0.0   -0.2    6.8
H     3.2    0.6    6.9
N     0.5    1.4    4.1
C     1.4    1.2    3.0
H     0.8    1.9    4.9
H     1.1    0.3    2.4
H     2.4    0.9    3.5
H     1.6    2.1    2.4
