          35
 sphere cut out from bulk 
C    -1.0    0.1    0.1
C    -0.7   -0.0    1.5
O     0.2    0.7    2.1
H    -1.6    0.9   -0.1
H    -1.4   -0.8   -0.3
H    -0.0    0.3   -0.5
N    -1.4   -1.0    2.2
C    -1.4   -1.1    3.7
C    -1.7    0.4    4.2
O    -2.7    0.9    3.9
H    -2.2   -1.4    1.7
H    -2.3   -1.6    3.9
C    -0.3   -2.0    4.3
C     1.2   -1.9    3.8
C     1.4   -2.8    2.5
N     1.1   -4.2    2.7
C    -0.0   -4.8    2.2
N    -0.1   -6.2    2.6
N    -1.0   -4.3    1.6
H    -0.7   -3.0    4.2
H    -0.3   -1.8    5.4
H     1.8   -2.3    4.6
H     1.4   -0.9    3.5
H     2.5   -2.7    2.3
H     0.9   -2.4    1.6
H     1.6   -4.7    3.4
H    -0.9   -6.6    2.2
H     0.7   -6.7    2.5
H    -0.9   -3.3    1.5
N    -0.9    1.0    5.2
C     0.6    0.9    5.4
H    -1.3    1.9    5.4
H     1.1    1.0    4.4
H     0.9   -0.0    5.9
H     0.8    1.8    6.0
