          35
 sphere cut out from bulk 
C    -0.7    1.0    0.2
C    -0.8    0.4    1.6
O    -0.1    0.7    2.5
H     0.3    0.8   -0.2
H    -0.7    2.1    0.3
H    -1.5    0.7   -0.5
N    -1.7   -0.6    1.7
C    -1.9   -1.4    2.9
C    -1.9   -0.6    4.2
O    -1.1   -0.9    5.2
H    -2.2   -0.9    0.9
H    -2.9   -1.9    2.8
C    -0.8   -2.6    3.0
C    -1.2   -3.8    3.8
C    -0.2   -4.9    3.8
N     0.0   -5.5    2.5
C     1.2   -5.5    1.8
N     2.1   -4.5    2.1
N     1.6   -6.3    0.8
H     0.1   -2.1    3.3
H    -0.6   -2.9    1.9
H    -2.2   -4.2    3.5
H    -1.3   -3.4    4.9
H    -0.5   -5.7    4.5
H     0.8   -4.5    4.2
H    -0.6   -6.2    2.2
H     2.9   -4.4    1.5
H     1.8   -3.5    2.3
H     0.9   -7.0    0.7
N    -2.8    0.4    4.3
C    -3.7    0.9    3.4
H    -2.7    0.9    5.2
H    -3.2    1.6    2.7
H    -4.5    1.4    3.9
H    -4.2    0.1    2.8
