          35
 sphere cut out from bulk 
C    -2.1   -0.1   -0.3
C    -1.8    0.2    1.1
O    -1.4    1.3    1.5
H    -2.9    0.6   -0.6
H    -2.5   -1.1   -0.4
H    -1.2    0.0   -0.9
N    -1.9   -0.8    2.0
C    -1.5   -0.7    3.4
C    -1.0   -2.0    4.0
O     0.2   -2.3    4.1
H    -2.1   -1.7    1.7
H    -0.6   -0.0    3.5
C    -2.5    0.0    4.3
C    -2.1    0.2    5.8
C    -3.2    0.9    6.6
N    -2.7    1.1    8.0
C    -3.5    1.7    8.9
N    -4.2    2.8    8.5
N    -3.5    1.2   10.1
H    -3.5   -0.6    4.3
H    -2.8    1.0    3.8
H    -1.9   -0.7    6.2
H    -1.2    0.8    5.8
H    -4.1    0.4    6.5
H    -3.4    1.9    6.1
H    -2.3    0.3    8.4
H    -4.6    3.4    9.2
H    -3.8    3.4    7.8
H    -4.0    1.9   10.8
N    -2.0   -2.9    4.2
C    -1.8   -4.3    4.7
H    -3.0   -2.6    4.2
H    -2.0   -4.3    5.8
H    -0.7   -4.5    4.6
H    -2.4   -5.0    4.2
