          35
 sphere cut out from bulk 
C     1.9   -0.7    0.6
C     1.1   -0.9    1.9
O     1.6   -1.5    2.8
H     2.2   -1.7    0.2
H     2.8   -0.1    0.8
H     1.3   -0.2   -0.2
N    -0.2   -0.5    1.9
C    -1.2   -0.4    2.9
C    -1.5    1.0    3.4
O    -2.7    1.4    3.3
H    -0.5   -0.0    1.0
H    -2.2   -0.7    2.4
C    -1.1   -1.4    4.1
C    -1.0   -2.9    3.7
C    -0.4   -3.8    4.8
N     0.9   -3.3    5.2
C     1.1   -2.7    6.5
N     0.5   -3.3    7.5
N     1.8   -1.6    6.6
H    -2.0   -1.2    4.7
H    -0.2   -1.1    4.7
H    -0.4   -3.0    2.8
H    -2.0   -3.3    3.4
H    -0.3   -4.8    4.5
H    -1.1   -3.8    5.7
H     1.4   -2.7    4.5
H     0.5   -4.3    7.5
H     0.7   -3.0    8.4
H     2.0   -1.4    7.5
N    -0.5    1.7    4.0
C     0.9    1.4    4.1
H    -0.8    2.6    4.2
H     1.5    1.7    3.2
H     1.1    0.4    4.4
H     1.3    2.1    5.0
