          35
 sphere cut out from bulk 
C    -1.4    1.7    0.9
C    -0.4    1.1    1.9
O     0.5    1.9    2.4
H    -1.5    1.1    0.0
H    -1.2    2.7    0.7
H    -2.4    1.6    1.4
N    -0.4   -0.2    2.2
C    -1.4   -1.2    1.9
C    -2.9   -0.9    2.5
O    -3.9   -1.0    1.7
H     0.3   -0.5    2.9
H    -1.6   -1.1    0.8
C    -1.0   -2.6    2.2
C    -1.9   -3.7    1.7
C    -1.4   -5.1    2.1
N    -0.1   -5.5    1.6
C     0.2   -5.5    0.2
N    -0.8   -5.9   -0.6
N     1.4   -5.2   -0.3
H    -0.8   -2.7    3.3
H     0.0   -2.7    1.7
H    -2.0   -3.6    0.6
H    -2.9   -3.6    2.2
H    -2.1   -5.8    1.8
H    -1.3   -5.2    3.2
H     0.7   -5.1    2.1
H    -0.5   -6.0   -1.5
H    -1.4   -6.7   -0.2
H     2.0   -4.8    0.4
N    -3.0   -0.5    3.8
C    -2.0   -0.3    4.8
H    -4.0   -0.3    4.0
H    -2.5   -0.2    5.8
H    -1.4    0.7    4.6
H    -1.3   -1.1    4.9
