          35
 sphere cut out from bulk 
C     0.2    0.0    0.7
C    -0.1    0.1    2.1
O     0.8    0.1    3.0
H    -0.2    0.9    0.1
H    -0.2   -0.9    0.2
H     1.3   -0.0    0.6
N    -1.4    0.2    2.5
C    -2.6    0.1    1.7
C    -3.7    1.0    2.3
O    -4.7    0.5    2.8
H    -1.6    0.2    3.5
H    -2.4    0.4    0.7
C    -3.1   -1.4    1.5
C    -3.2   -2.3    2.8
C    -1.9   -3.0    3.1
N    -2.0   -4.0    4.2
C    -2.6   -5.2    3.9
N    -2.8   -6.0    5.1
N    -2.9   -5.6    2.8
H    -2.5   -1.9    0.8
H    -4.1   -1.3    1.0
H    -4.0   -3.0    2.6
H    -3.5   -1.7    3.6
H    -1.1   -2.4    3.3
H    -1.6   -3.6    2.2
H    -2.2   -3.6    5.1
H    -3.0   -6.9    5.0
H    -2.0   -5.9    5.8
H    -3.2   -6.6    2.8
N    -3.5    2.3    2.2
C    -2.3    3.0    1.6
H    -4.2    2.9    2.6
H    -1.4    2.9    2.2
H    -2.6    4.1    1.5
H    -2.1    2.6    0.6
