          35
 sphere cut out from bulk 
C     1.0   -0.5    0.0
C     0.7   -0.1    1.5
O     1.4    0.7    2.1
H     0.4   -1.4   -0.3
H     2.0   -0.8   -0.0
H     0.8    0.4   -0.6
N    -0.4   -0.8    2.0
C    -1.0   -0.6    3.4
C    -1.9    0.6    3.3
O    -3.1    0.4    2.8
H    -0.9   -1.4    1.4
H    -1.7   -1.4    3.5
C     0.0   -0.6    4.5
C    -0.7   -0.5    5.9
C     0.4   -0.4    7.0
N    -0.2   -0.1    8.3
C    -0.7    1.1    8.7
N    -1.2    1.2    9.9
N    -0.5    2.1    7.8
H     0.8    0.1    4.4
H     0.6   -1.6    4.4
H    -1.3   -1.4    6.0
H    -1.3    0.3    5.9
H     1.0    0.4    6.8
H     1.0   -1.3    7.1
H    -0.7   -0.9    8.8
H    -1.9    1.9   10.0
H    -1.5    0.4   10.4
H    -0.7    3.0    8.3
N    -1.6    1.9    3.6
C    -0.4    2.5    4.1
H    -2.4    2.5    3.5
H    -0.3    2.4    5.2
H    -0.4    3.6    3.9
H     0.5    2.1    3.6
