          35
 sphere cut out from bulk 
C    -0.1   -0.3    1.2
C    -1.0   -0.1    2.4
O    -0.7   -0.4    3.5
H     0.1    0.7    0.6
H    -0.6   -1.0    0.5
H     0.8   -0.7    1.5
N    -2.2    0.5    2.2
C    -2.9    0.8    0.9
C    -3.8    2.1    1.0
O    -5.0    2.1    0.7
H    -2.9    0.6    3.0
H    -2.2    1.0    0.2
C    -3.8   -0.4    0.5
C    -4.5   -1.3    1.5
C    -5.6   -0.6    2.4
N    -5.0    0.2    3.5
C    -5.6    1.3    4.1
N    -6.4    2.0    3.3
N    -5.5    1.6    5.4
H    -3.1   -1.1   -0.1
H    -4.5   -0.0   -0.3
H    -3.8   -1.8    2.2
H    -5.0   -2.1    1.0
H    -6.2   -1.3    2.8
H    -6.2    0.1    1.8
H    -4.5   -0.4    4.2
H    -6.8    2.9    3.8
H    -6.1    2.2    2.4
H    -5.0    0.8    5.9
N    -3.1    3.2    1.4
C    -1.7    3.4    1.8
H    -3.7    4.0    1.5
H    -1.4    3.1    2.8
H    -1.5    4.5    1.7
H    -1.1    2.9    1.0
