          35
 sphere cut out from bulk 
C    -0.6   -0.1   -1.0
C    -0.0   -0.1    0.4
O     1.2   -0.2    0.6
H    -0.9    0.9   -1.2
H    -1.5   -0.8   -1.0
H     0.1   -0.5   -1.7
N    -0.8   -0.1    1.5
C    -2.3   -0.2    1.6
C    -2.8   -1.5    1.0
O    -2.2   -2.6    1.3
H    -0.3   -0.2    2.4
H    -2.5   -0.2    2.7
C    -3.0    1.1    1.1
C    -2.5    2.4    1.7
C    -3.3    3.6    1.2
N    -4.7    3.6    1.6
C    -5.7    3.1    0.8
N    -6.9    3.0    1.4
N    -5.6    2.7   -0.5
H    -4.1    1.0    1.3
H    -2.9    1.1   -0.0
H    -1.4    2.5    1.4
H    -2.5    2.3    2.8
H    -3.2    3.7    0.1
H    -2.9    4.5    1.6
H    -4.9    3.6    2.6
H    -7.7    2.8    0.8
H    -7.2    3.8    2.0
H    -4.7    2.7   -0.8
N    -4.0   -1.5    0.3
C    -4.6   -2.7   -0.2
H    -4.4   -0.6    0.1
H    -5.6   -2.8    0.2
H    -4.0   -3.6    0.1
H    -4.7   -2.7   -1.3
