          35
 sphere cut out from bulk 
C     0.2   -0.6    0.2
C     0.3   -0.1    1.7
O     1.3    0.1    2.3
H     0.5   -1.6    0.2
H     0.9   -0.0   -0.3
H    -0.8   -0.5   -0.2
N    -1.0    0.0    2.3
C    -1.2    0.3    3.8
C    -0.3    1.4    4.3
O     0.1    1.4    5.5
H    -1.8   -0.2    1.8
H    -2.2    0.6    3.8
C    -1.1   -1.0    4.6
C     0.2   -1.8    4.6
C     0.2   -2.9    5.6
N     1.4   -3.7    5.5
C     1.6   -4.8    6.3
N     2.9   -5.3    6.2
N     0.8   -5.5    7.0
H    -1.9   -1.7    4.3
H    -1.3   -0.7    5.7
H     1.1   -1.1    4.8
H     0.4   -2.2    3.6
H    -0.6   -3.6    5.4
H     0.0   -2.5    6.6
H     2.3   -3.1    5.5
H     3.0   -6.2    6.6
H     3.3   -5.3    5.3
H    -0.1   -5.0    7.1
N    -0.2    2.5    3.5
C     0.7    3.6    3.9
H    -0.4    2.4    2.5
H     0.3    4.5    3.4
H     1.7    3.4    3.6
H     0.7    3.7    5.0
