          35
 sphere cut out from bulk 
C    -0.2   -1.6    0.3
C    -0.3   -0.9    1.6
O     0.6   -0.9    2.4
H    -0.2   -2.7    0.5
H     0.8   -1.4   -0.2
H    -1.0   -1.4   -0.4
N    -1.5   -0.3    1.9
C    -1.9    0.6    3.0
C    -1.4    2.0    2.7
O    -0.5    2.3    2.0
H    -2.2   -0.3    1.1
H    -3.0    0.6    3.0
C    -1.4    0.0    4.3
C    -2.1   -1.3    4.7
C    -1.2   -2.2    5.6
N    -0.1   -2.8    4.8
C    -0.3   -3.9    3.9
N    -1.3   -4.8    4.3
N     0.3   -4.1    2.9
H    -1.7    0.8    5.1
H    -0.3   -0.1    4.3
H    -2.3   -1.9    3.8
H    -3.0   -1.1    5.2
H    -1.8   -3.0    6.0
H    -0.7   -1.6    6.4
H     0.6   -2.1    4.4
H    -1.3   -5.6    3.8
H    -1.3   -5.0    5.3
H     1.0   -3.3    2.6
N    -2.1    3.0    3.4
C    -3.3    2.9    4.1
H    -1.7    3.9    3.2
H    -3.5    3.9    4.6
H    -3.3    2.2    5.0
H    -4.2    2.6    3.5
