          35
 sphere cut out from bulk 
C    -0.1   -3.5   -0.5
C    -0.9   -2.5    0.4
O    -1.4   -1.6   -0.1
H     0.4   -4.3    0.1
H     0.7   -3.0   -1.0
H    -0.8   -3.9   -1.2
N    -0.9   -2.8    1.7
C    -1.4   -1.9    2.7
C    -0.9   -2.3    4.1
O     0.1   -3.1    4.1
H    -0.2   -3.5    2.1
H    -1.1   -0.9    2.5
C    -3.0   -1.8    2.7
C    -3.7   -3.2    2.9
C    -5.1   -3.0    3.6
N    -5.0   -3.1    5.0
C    -4.6   -2.2    5.9
N    -4.3   -2.7    7.2
N    -4.4   -0.9    5.7
H    -3.3   -1.4    1.7
H    -3.3   -1.1    3.4
H    -3.1   -3.8    3.5
H    -3.8   -3.7    2.0
H    -5.7   -3.9    3.2
H    -5.6   -2.1    3.3
H    -5.3   -4.0    5.4
H    -3.9   -2.0    7.8
H    -3.8   -3.5    7.2
H    -4.8   -0.6    4.8
N    -1.4   -1.7    5.2
C    -0.9   -2.0    6.5
H    -2.2   -1.2    5.1
H     0.2   -1.9    6.5
H    -1.1   -3.0    6.8
H    -1.3   -1.3    7.2
