          35
 sphere cut out from bulk 
C     1.7   -1.2    1.0
C     1.3   -0.2    2.1
O     2.1    0.6    2.5
H     2.1   -0.6    0.1
H     0.9   -1.9    0.6
H     2.6   -1.8    1.4
N     0.0   -0.4    2.5
C    -0.7    0.2    3.6
C    -1.8    1.2    3.3
O    -2.9    1.1    3.8
H    -0.5   -1.2    2.1
H    -1.3   -0.7    4.0
C     0.2    0.6    4.8
C    -0.6    1.0    6.1
C    -1.5   -0.1    6.7
N    -0.9   -1.4    6.9
C    -1.0   -2.5    6.1
N    -0.1   -3.5    6.4
N    -1.9   -2.7    5.2
H     0.9    1.4    4.5
H     0.9   -0.3    5.0
H    -1.2    1.9    5.9
H     0.2    1.3    6.9
H    -2.4   -0.2    6.0
H    -1.9    0.3    7.6
H    -0.2   -1.4    7.7
H    -0.2   -4.2    5.7
H     0.9   -3.1    6.5
H    -2.6   -2.0    5.2
N    -1.4    2.3    2.5
C    -0.2    2.7    1.9
H    -2.2    2.9    2.4
H    -0.1    3.8    1.9
H    -0.2    2.3    0.8
H     0.7    2.2    2.4
