          35
 sphere cut out from bulk 
C    -2.7    0.8   -0.4
C    -1.9    0.1    0.8
O    -1.0    0.6    1.3
H    -3.3    1.6    0.0
H    -3.4    0.1   -0.9
H    -2.0    1.2   -1.1
N    -2.5   -1.1    1.2
C    -1.9   -1.8    2.4
C    -2.6   -3.1    2.4
O    -3.7   -3.3    1.8
H    -3.3   -1.5    0.8
H    -0.8   -1.9    2.2
C    -2.1   -1.0    3.7
C    -3.6   -0.7    4.1
C    -3.8    0.5    5.0
N    -3.4    1.8    4.3
C    -4.1    2.3    3.2
N    -5.5    2.0    3.2
N    -3.6    2.9    2.2
H    -1.6   -0.1    3.6
H    -1.6   -1.5    4.5
H    -4.0   -1.6    4.6
H    -4.2   -0.6    3.1
H    -3.2    0.4    5.9
H    -4.8    0.6    5.3
H    -2.4    1.9    4.2
H    -6.0    2.5    2.5
H    -5.9    2.2    4.2
H    -2.6    2.8    2.2
N    -2.0   -4.1    3.1
C    -0.8   -4.1    3.9
H    -2.6   -5.0    3.2
H    -0.4   -5.1    3.9
H    -1.0   -3.8    5.0
H    -0.1   -3.4    3.5
