          35
 sphere cut out from bulk 
C     0.1   -0.3    0.9
C    -0.4   -0.6    2.3
O     0.4   -0.8    3.2
H     1.1   -0.7    0.8
H     0.2    0.8    0.8
H    -0.5   -0.7    0.1
N    -1.7   -0.7    2.5
C    -2.9   -0.4    1.6
C    -3.0   -1.4    0.4
O    -3.5   -1.1   -0.6
H    -2.0   -0.8    3.5
H    -3.8   -0.6    2.2
C    -2.9    1.1    1.2
C    -4.3    1.6    0.9
C    -5.2    1.8    2.1
N    -6.5    2.4    1.9
C    -6.5    3.8    1.8
N    -7.8    4.2    1.4
N    -5.5    4.5    2.1
H    -2.3    1.2    0.2
H    -2.4    1.7    1.9
H    -4.8    1.0    0.1
H    -4.2    2.6    0.5
H    -4.7    2.4    2.9
H    -5.4    0.8    2.6
H    -7.1    1.9    1.3
H    -8.0    5.2    1.5
H    -8.6    3.7    1.8
H    -5.8    5.5    2.1
N    -2.5   -2.6    0.7
C    -2.6   -3.7   -0.3
H    -2.0   -2.8    1.6
H    -1.6   -4.0   -0.6
H    -3.1   -3.4   -1.1
H    -3.1   -4.6    0.1
