          35
 sphere cut out from bulk 
C    -1.3   -0.4   -0.1
C    -1.4    0.2    1.3
O    -1.1    1.4    1.5
H    -1.8   -1.4   -0.1
H    -0.2   -0.6   -0.3
H    -1.7    0.2   -0.8
N    -1.8   -0.6    2.3
C    -1.7   -0.2    3.7
C    -2.6    1.0    4.0
O    -2.3    1.8    4.9
H    -1.9   -1.6    2.1
H    -2.2   -1.0    4.3
C    -0.2   -0.0    4.2
C    -0.1   -0.3    5.7
C     1.2    0.2    6.3
N     1.6    1.6    6.0
C     1.1    2.7    6.7
N    -0.2    2.6    7.0
N     2.0    3.6    7.1
H     0.1    1.0    4.0
H     0.4   -0.7    3.7
H    -0.2   -1.4    5.9
H    -0.9    0.2    6.3
H     2.0   -0.4    5.9
H     1.2    0.0    7.4
H     2.6    1.7    5.8
H    -0.6    3.5    7.4
H    -0.8    2.3    6.2
H     1.5    4.4    7.5
N    -3.7    1.1    3.3
C    -4.6    2.3    3.4
H    -3.8    0.5    2.5
H    -4.3    3.1    2.8
H    -4.6    2.6    4.5
H    -5.6    1.9    3.2
