          35
 sphere cut out from bulk 
C    -0.8    0.1   -0.3
C    -0.6    0.3    1.2
O     0.6    0.4    1.7
H    -0.3   -0.9   -0.6
H    -0.3    0.8   -0.8
H    -1.9    0.0   -0.6
N    -1.7    0.3    2.0
C    -1.8    0.4    3.5
C    -1.4    1.8    4.0
O    -2.1    2.4    4.8
H    -2.6    0.3    1.5
H    -2.8    0.3    3.7
C    -1.0   -0.7    4.2
C    -1.5   -2.1    3.8
C    -0.8   -3.2    4.6
N    -1.0   -3.2    6.0
C    -0.0   -3.2    7.0
N     1.1   -2.5    6.6
N    -0.2   -3.8    8.1
H    -1.2   -0.6    5.2
H     0.1   -0.7    4.0
H    -1.4   -2.3    2.7
H    -2.6   -2.2    4.0
H     0.3   -3.2    4.4
H    -1.1   -4.2    4.2
H    -1.8   -3.7    6.4
H     1.8   -2.3    7.3
H     1.0   -1.6    6.0
H     0.5   -3.6    8.8
N    -0.1    2.3    3.7
C     0.4    3.5    4.2
H     0.4    1.7    3.0
H     1.3    3.4    4.7
H    -0.4    4.0    4.8
H     0.6    4.2    3.3
