          35
 sphere cut out from bulk 
C    -0.2   -0.8    0.1
C    -0.1   -0.5    1.6
O     0.9   -0.4    2.1
H     0.2   -1.8   -0.1
H     0.4   -0.0   -0.5
H    -1.3   -0.8   -0.3
N    -1.4   -0.3    2.2
C    -1.6   -0.1    3.6
C    -2.2    1.4    3.9
O    -3.3    1.5    4.4
H    -2.2   -0.4    1.6
H    -2.6   -0.7    3.8
C    -0.6   -0.6    4.6
C    -1.1   -0.6    6.0
C    -0.1   -0.9    7.1
N     0.5   -2.2    6.9
C     1.3   -2.8    7.9
N     1.9   -4.0    7.5
N     1.6   -2.4    9.1
H     0.3    0.1    4.6
H    -0.3   -1.6    4.3
H    -1.9   -1.3    6.1
H    -1.6    0.4    6.3
H    -0.5   -0.9    8.1
H     0.7   -0.1    7.1
H     0.8   -2.5    6.0
H     2.4   -4.5    8.2
H     1.2   -4.7    7.0
H     1.3   -1.4    9.2
N    -1.4    2.5    3.6
C    -0.1    2.5    3.0
H    -1.8    3.3    3.9
H    -0.2    2.8    1.9
H     0.5    1.6    3.0
H     0.5    3.3    3.4
