          35
 sphere cut out from bulk 
C     0.3    0.6    0.5
C    -0.4   -0.5    1.4
O    -0.1   -1.6    1.4
H     0.8    1.3    1.1
H    -0.3    1.1   -0.1
H     1.1    0.0   -0.1
N    -1.5    0.0    2.1
C    -1.9    1.4    2.3
C    -0.9    2.3    3.0
O    -0.8    3.5    2.7
H    -1.9   -0.7    2.6
H    -2.0    1.9    1.3
C    -3.3    1.4    2.9
C    -3.9    2.8    3.2
C    -4.2    3.6    1.9
N    -4.7    5.0    2.1
C    -3.8    6.1    2.4
N    -2.5    5.9    2.0
N    -4.2    7.2    2.8
H    -3.3    0.9    3.9
H    -4.0    0.9    2.3
H    -3.2    3.4    3.8
H    -4.8    2.7    3.8
H    -5.0    3.1    1.3
H    -3.3    3.7    1.3
H    -5.6    5.1    2.6
H    -1.9    6.7    2.3
H    -2.0    5.0    2.2
H    -5.2    7.3    2.9
N    -0.2    1.8    4.1
C    -0.3    0.5    4.8
H     0.4    2.5    4.5
H    -1.3    0.2    5.0
H     0.2    0.6    5.8
H     0.2   -0.3    4.2
