          35
 sphere cut out from bulk 
C    -2.3    1.3    5.0
C    -1.4    0.1    4.6
O    -0.2    0.0    5.0
H    -2.3    1.4    6.1
H    -3.3    1.2    4.5
H    -1.8    2.2    4.6
N    -2.0   -0.9    3.9
C    -1.4   -2.2    3.6
C    -0.4   -2.2    2.4
O    -0.5   -2.9    1.5
H    -3.0   -0.8    3.6
H    -0.7   -2.4    4.5
C    -2.4   -3.3    3.6
C    -3.8   -3.0    2.9
C    -3.7   -2.7    1.4
N    -3.1   -3.7    0.5
C    -3.8   -4.9    0.2
N    -2.9   -5.8   -0.4
N    -5.0   -5.2    0.3
H    -2.6   -3.6    4.6
H    -1.9   -4.2    3.1
H    -4.3   -2.2    3.4
H    -4.4   -3.9    3.0
H    -3.1   -1.8    1.2
H    -4.7   -2.5    1.0
H    -2.1   -3.8    0.6
H    -2.2   -5.5   -1.0
H    -3.5   -6.6   -0.8
H    -5.5   -4.4    0.9
N     0.6   -1.2    2.5
C     1.6   -1.0    1.5
H     0.6   -0.7    3.4
H     1.3   -1.6    0.6
H     2.6   -1.4    1.9
H     1.7    0.1    1.3
