          35
 sphere cut out from bulk 
C    -0.2   -0.2   -0.9
C    -0.7    0.1    0.5
O    -1.2    1.2    0.7
H     0.3   -1.2   -0.9
H     0.6    0.5   -1.1
H    -1.0   -0.1   -1.6
N    -0.7   -0.9    1.4
C    -1.3   -0.8    2.8
C    -0.3   -1.3    3.8
O    -0.6   -1.9    4.8
H    -0.4   -1.8    1.1
H    -1.4    0.2    2.9
C    -2.6   -1.6    2.9
C    -3.7   -1.1    1.9
C    -4.5    0.1    2.3
N    -3.7    1.3    2.4
C    -3.4    1.8    3.6
N    -2.2    2.7    3.6
N    -4.0    1.5    4.7
H    -3.0   -1.5    3.9
H    -2.4   -2.7    2.7
H    -4.5   -2.0    1.8
H    -3.3   -1.0    0.9
H    -5.0   -0.0    3.3
H    -5.3    0.3    1.6
H    -3.0    1.4    1.7
H    -2.2    3.4    4.3
H    -2.0    3.0    2.7
H    -3.7    2.0    5.5
N     1.0   -0.9    3.6
C     2.1   -1.2    4.5
H     1.2   -0.4    2.8
H     1.7   -1.8    5.3
H     2.4   -0.2    5.0
H     2.9   -1.7    4.0
