          35
 sphere cut out from bulk 
C    -0.1    0.5    0.5
C    -0.4    0.2    2.0
O     0.6    0.0    2.8
H    -0.7    1.4    0.1
H    -0.5   -0.4   -0.1
H     0.9    0.6    0.3
N    -1.6    0.3    2.5
C    -2.9    0.2    1.7
C    -3.9    1.1    2.3
O    -3.9    1.4    3.5
H    -1.7    0.2    3.5
H    -2.7    0.5    0.7
C    -3.4   -1.3    1.8
C    -2.5   -2.3    1.2
C    -2.6   -3.7    1.9
N    -2.4   -3.7    3.3
C    -1.1   -3.9    3.9
N    -0.1   -3.3    3.3
N    -0.9   -4.7    5.0
H    -4.4   -1.3    1.3
H    -3.6   -1.5    2.9
H    -1.4   -2.0    1.3
H    -2.7   -2.5    0.1
H    -1.9   -4.4    1.4
H    -3.6   -4.1    1.7
H    -3.1   -4.1    3.9
H     0.8   -3.5    3.8
H    -0.2   -2.3    3.1
H    -1.8   -5.2    5.2
N    -4.8    1.7    1.5
C    -4.9    1.5    0.1
H    -5.5    2.2    2.0
H    -5.8    2.1   -0.3
H    -5.1    0.5   -0.3
H    -4.1    1.9   -0.5
