          35
 sphere cut out from bulk 
C    -0.8   -1.7    0.7
C    -1.1   -0.8    1.9
O    -0.9    0.4    1.9
H    -1.0   -2.8    0.9
H     0.2   -1.6    0.4
H    -1.5   -1.4   -0.1
N    -1.4   -1.5    3.0
C    -1.6   -0.8    4.3
C    -0.8   -1.7    5.4
O    -0.8   -3.0    5.2
H    -1.4   -2.5    3.1
H    -1.1    0.1    4.2
C    -3.0   -0.6    4.8
C    -3.8    0.3    3.8
C    -5.3    0.4    4.2
N    -5.5    1.1    5.4
C    -6.8    1.5    5.9
N    -6.8    2.0    7.2
N    -7.9    1.3    5.2
H    -3.0   -0.2    5.8
H    -3.5   -1.6    4.8
H    -3.7   -0.1    2.8
H    -3.3    1.3    3.8
H    -5.8   -0.6    4.2
H    -5.8    1.0    3.4
H    -4.9    0.8    6.2
H    -7.7    2.3    7.4
H    -6.0    2.7    7.3
H    -7.8    0.8    4.3
N    -0.3   -1.1    6.4
C     0.4   -1.7    7.5
H    -0.3   -0.1    6.4
H     1.4   -1.5    7.6
H     0.3   -2.8    7.3
H    -0.1   -1.5    8.5
