          35
 sphere cut out from bulk 
C    -2.2    1.7    4.4
C    -1.4    0.4    4.3
O    -0.2    0.4    4.5
H    -3.2    1.6    4.0
H    -1.8    2.5    3.8
H    -2.2    2.0    5.4
N    -2.0   -0.7    3.8
C    -1.4   -2.0    3.8
C    -0.5   -2.3    2.6
O    -0.6   -3.3    1.9
H    -3.0   -0.6    3.6
H    -0.7   -2.1    4.7
C    -2.5   -3.1    4.0
C    -3.9   -2.9    3.3
C    -3.9   -2.8    1.7
N    -3.3   -4.0    1.1
C    -3.7   -4.4   -0.2
N    -2.9   -5.4   -0.7
N    -4.7   -4.0   -0.9
H    -2.7   -3.2    5.1
H    -2.0   -4.0    3.7
H    -4.4   -2.0    3.7
H    -4.5   -3.8    3.5
H    -3.3   -1.9    1.4
H    -4.9   -2.7    1.4
H    -2.3   -4.1    1.2
H    -2.6   -6.1    0.0
H    -3.4   -5.8   -1.5
H    -5.2   -3.1   -0.5
N     0.4   -1.3    2.4
C     1.4   -1.4    1.3
H     0.5   -0.6    3.1
H     0.9   -1.9    0.4
H     2.3   -2.0    1.6
H     1.8   -0.4    1.1
