          35
 sphere cut out from bulk 
C     0.1   -0.2    1.1
C    -0.4    0.0    2.6
O     0.4    0.0    3.5
H    -0.6   -1.0    0.7
H     1.1   -0.6    1.2
H     0.0    0.7    0.5
N    -1.7    0.3    2.8
C    -2.9    0.3    2.0
C    -3.3   -1.2    1.7
O    -2.5   -2.1    1.5
H    -1.8    0.4    3.8
H    -3.7    0.7    2.7
C    -2.9    1.1    0.7
C    -2.4    2.6    0.9
C    -3.2    3.4    1.9
N    -4.7    3.3    1.9
C    -5.4    3.6    0.7
N    -4.8    4.4   -0.2
N    -6.6    3.2    0.5
H    -3.9    1.1    0.3
H    -2.2    0.6   -0.0
H    -2.5    3.0   -0.1
H    -1.4    2.6    1.2
H    -2.9    4.4    1.9
H    -2.9    3.1    3.0
H    -5.1    2.7    2.5
H    -4.3    5.2    0.2
H    -5.5    4.8   -0.9
H    -6.9    2.5    1.2
N    -4.7   -1.4    1.6
C    -5.8   -0.5    1.8
H    -4.9   -2.4    1.3
H    -5.8   -0.0    2.8
H    -6.7   -1.0    1.7
H    -5.8    0.3    1.0
