          35
 sphere cut out from bulk 
C     1.4    0.8    0.7
C     0.9    0.1    2.0
O     1.7   -0.3    2.9
H     1.4    1.9    0.8
H     0.7    0.5   -0.1
H     2.4    0.4    0.5
N    -0.4    0.1    2.1
C    -1.1   -0.2    3.4
C    -2.2   -1.2    3.2
O    -3.4   -0.9    3.5
H    -1.0    0.5    1.4
H    -0.3   -0.7    4.0
C    -1.4    1.0    4.2
C    -2.5    2.0    3.5
C    -2.2    3.5    3.8
N    -1.1    4.0    3.1
C     0.3    3.9    3.4
N     0.6    4.0    4.7
N     1.1    3.7    2.4
H    -0.5    1.6    4.4
H    -1.8    0.7    5.2
H    -3.5    1.7    3.9
H    -2.5    1.9    2.5
H    -2.0    3.6    4.9
H    -3.1    4.1    3.6
H    -1.2    4.0    2.1
H     1.5    3.5    5.0
H    -0.1    4.0    5.4
H     2.1    3.8    2.8
N    -1.9   -2.5    2.7
C    -0.6   -3.0    2.3
H    -2.7   -3.0    2.6
H    -0.6   -4.1    2.5
H     0.2   -2.6    3.0
H    -0.4   -2.8    1.3
