          35
 sphere cut out from bulk 
C    -0.2    0.7   -0.2
C    -0.1   -0.4    0.9
O     0.5   -1.4    0.7
H     0.1    1.7    0.2
H    -1.2    0.8   -0.6
H     0.5    0.4   -1.0
N    -0.8   -0.2    2.1
C    -1.8    0.7    2.7
C    -3.1   -0.0    3.0
O    -3.6    0.0    4.2
H    -0.6   -1.0    2.7
H    -1.4    0.9    3.7
C    -2.0    2.1    2.0
C    -0.8    3.0    2.4
C    -1.2    4.0    3.6
N    -1.8    3.3    4.7
C    -3.1    3.4    5.1
N    -3.5    2.5    6.0
N    -3.8    4.4    4.5
H    -2.9    2.5    2.4
H    -2.1    2.0    1.0
H    -0.6    3.7    1.5
H     0.1    2.5    2.6
H    -1.9    4.7    3.3
H    -0.3    4.5    3.9
H    -1.2    2.8    5.4
H    -3.3    1.5    5.7
H    -4.4    2.6    6.3
H    -4.8    4.3    4.8
N    -3.8   -0.6    2.0
C    -3.5   -0.8    0.6
H    -4.7   -1.1    2.4
H    -4.4   -1.1    0.1
H    -2.7   -1.4    0.4
H    -3.3    0.2    0.1
