          35
 sphere cut out from bulk 
C     0.2   -0.4    0.2
C     0.2   -0.5    1.7
O     1.2   -0.7    2.4
H    -0.0    0.6   -0.2
H    -0.5   -1.1   -0.3
H     1.2   -0.7   -0.1
N    -1.0   -0.2    2.3
C    -2.3    0.1    1.7
C    -2.3    1.6    1.4
O    -2.1    2.5    2.2
H    -1.0   -0.2    3.3
H    -2.4   -0.5    0.7
C    -3.5   -0.2    2.5
C    -3.4   -1.4    3.6
C    -3.0   -0.9    5.0
N    -1.6   -0.4    5.1
C    -1.4    0.9    5.8
N    -2.1    1.9    5.2
N    -0.7    0.9    6.8
H    -4.3   -0.4    1.9
H    -3.8    0.7    3.1
H    -2.6   -2.1    3.2
H    -4.3   -1.9    3.6
H    -3.1   -1.7    5.7
H    -3.7   -0.1    5.3
H    -1.0   -1.0    5.6
H    -2.1    2.0    4.2
H    -1.9    2.8    5.7
H    -0.5    1.8    7.2
N    -2.7    2.0    0.1
C    -3.1    1.2   -1.0
H    -2.8    3.0    0.0
H    -3.4    1.8   -1.8
H    -4.0    0.6   -0.8
H    -2.3    0.5   -1.4
