          35
 sphere cut out from bulk 
C    -0.0   -0.1   -0.0
C     0.0   -0.0    1.5
O     1.1   -0.1    2.1
H     1.0   -0.2   -0.4
H    -0.5    0.8   -0.5
H    -0.6   -1.0   -0.4
N    -1.1    0.1    2.2
C    -2.6    0.1    2.0
C    -3.2   -1.1    2.8
O    -4.2   -0.9    3.6
H    -0.9    0.2    3.2
H    -3.0    0.9    2.5
C    -3.1    0.2    0.6
C    -4.6    0.3    0.4
C    -5.3   -1.0    0.3
N    -6.8   -0.9    0.1
C    -7.2   -0.6   -1.2
N    -8.6   -0.3   -1.2
N    -6.5   -0.5   -2.2
H    -2.7   -0.7   -0.1
H    -2.6    1.1    0.1
H    -4.8    0.9   -0.5
H    -5.0    0.9    1.2
H    -5.2   -1.6    1.2
H    -4.9   -1.6   -0.6
H    -7.3   -0.5    0.9
H    -9.0   -0.3   -2.1
H    -9.2   -1.0   -0.6
H    -7.0   -0.4   -3.1
N    -2.8   -2.4    2.6
C    -1.8   -2.9    1.7
H    -3.3   -3.0    3.2
H    -1.8   -4.0    1.7
H    -0.7   -2.6    2.1
H    -1.9   -2.6    0.7
