          35
 sphere cut out from bulk 
C     1.7   -0.6    1.2
C     0.9    0.1    2.3
O     1.4    0.3    3.4
H     2.0   -1.6    1.4
H     2.6    0.0    1.0
H     1.1   -0.6    0.2
N    -0.4    0.3    2.0
C    -1.3    0.8    3.0
C    -2.8    0.3    2.7
O    -3.3   -0.6    3.3
H    -0.8    0.1    1.1
H    -1.1    0.3    4.0
C    -1.2    2.3    3.3
C    -1.9    2.9    4.5
C    -3.5    2.9    4.3
N    -4.1    3.6    5.5
C    -5.5    3.8    5.6
N    -5.8    4.6    6.7
N    -6.4    3.2    4.9
H    -1.5    2.9    2.4
H    -0.1    2.5    3.4
H    -1.6    3.9    4.7
H    -1.7    2.3    5.4
H    -3.9    1.9    4.3
H    -3.7    3.4    3.4
H    -3.5    4.4    5.8
H    -6.8    4.5    6.8
H    -5.3    4.4    7.5
H    -6.0    2.7    4.0
N    -3.3    0.9    1.6
C    -4.7    0.6    1.2
H    -2.9    1.8    1.3
H    -4.8    0.6    0.1
H    -5.4    1.4    1.6
H    -5.0   -0.4    1.6
