          35
 sphere cut out from bulk 
C    -0.9    0.1   -0.4
C    -0.5    0.5    1.0
O     0.4    1.3    1.2
H     0.0   -0.3   -0.9
H    -1.2    1.0   -1.0
H    -1.7   -0.7   -0.5
N    -1.2   -0.1    2.0
C    -1.0    0.1    3.4
C    -1.5   -1.1    4.1
O    -2.5   -1.7    3.8
H    -2.0   -0.8    1.8
H     0.1    0.3    3.5
C    -1.7    1.4    3.9
C    -1.1    2.2    5.0
C     0.0    3.1    4.6
N     1.1    2.6    3.8
C     2.1    1.9    4.4
N     2.8    1.1    3.5
N     2.4    2.0    5.7
H    -2.8    1.1    4.1
H    -1.8    2.1    3.0
H    -0.7    1.5    5.8
H    -1.9    2.8    5.5
H     0.5    3.6    5.5
H    -0.4    4.0    4.0
H     0.8    2.3    2.9
H     3.8    0.9    3.8
H     2.7    1.3    2.5
H     3.2    1.5    6.0
N    -0.7   -1.5    5.2
C     0.6   -1.1    5.7
H    -1.2   -2.3    5.7
H     1.0   -1.9    6.2
H     0.5   -0.2    6.3
H     1.2   -0.9    4.8
