          35
 sphere cut out from bulk 
C     0.3   -1.2    1.2
C     0.3   -0.1    2.1
O     1.3    0.5    2.6
H     1.4   -1.4    0.9
H    -0.2   -1.1    0.2
H     0.0   -2.2    1.7
N    -1.0    0.4    2.4
C    -2.3    0.0    1.9
C    -3.1    1.3    1.5
O    -3.0    2.3    2.2
H    -1.0    1.3    3.0
H    -2.1   -0.6    1.0
C    -3.1   -0.7    3.0
C    -2.5   -2.0    3.5
C    -2.6   -3.2    2.4
N    -1.7   -4.3    2.8
C    -1.6   -5.3    1.9
N    -0.8   -6.4    2.5
N    -2.1   -5.5    0.7
H    -4.1   -0.9    2.6
H    -3.2   -0.0    3.9
H    -3.0   -2.4    4.4
H    -1.4   -1.9    3.7
H    -2.3   -2.8    1.4
H    -3.7   -3.5    2.4
H    -1.7   -4.5    3.8
H    -0.6   -7.1    1.8
H     0.0   -6.1    2.9
H    -2.8   -4.8    0.5
N    -3.8    1.2    0.4
C    -4.7    2.2   -0.1
H    -3.8    0.3   -0.1
H    -4.4    2.6   -1.1
H    -4.6    3.1    0.6
H    -5.7    1.9   -0.1
