          35
 sphere cut out from bulk 
C    -0.2    0.5   -0.5
C    -1.1    1.3    0.4
O    -1.4    2.4    0.1
H     0.8    0.3   -0.1
H    -0.1    1.0   -1.4
H    -0.6   -0.5   -0.7
N    -1.4    0.8    1.7
C    -1.5   -0.5    2.2
C    -0.3   -1.4    1.8
O     0.8   -1.1    2.0
H    -2.0    1.5    2.1
H    -1.4   -0.5    3.2
C    -3.0   -1.1    1.9
C    -3.5   -1.1    0.5
C    -4.2    0.2    0.1
N    -5.3    0.7    0.9
C    -5.2    1.7    1.9
N    -4.0    2.4    1.9
N    -6.0    1.9    2.9
H    -3.6   -0.5    2.6
H    -3.0   -2.1    2.4
H    -4.3   -1.9    0.5
H    -2.8   -1.4   -0.2
H    -4.6    0.1   -1.0
H    -3.4    1.0   -0.1
H    -6.1    0.2    0.9
H    -3.6    2.7    1.1
H    -4.1    3.2    2.6
H    -6.8    1.2    2.8
N    -0.6   -2.6    1.2
C     0.4   -3.6    0.9
H    -1.6   -2.9    1.0
H     0.2   -4.6    1.4
H     1.4   -3.2    1.2
H     0.4   -3.8   -0.2
