          35
 sphere cut out from bulk 
C    -1.1    0.4   -0.9
C    -0.4    0.5    0.4
O     0.8    0.9    0.6
H    -2.1    0.0   -0.9
H    -0.5   -0.3   -1.6
H    -1.1    1.4   -1.4
N    -1.2    0.1    1.5
C    -0.6    0.0    2.8
C    -1.5   -1.0    3.6
O    -2.6   -1.3    3.2
H    -2.1   -0.3    1.4
H     0.4   -0.3    2.8
C    -0.6    1.4    3.5
C     0.8    2.0    3.9
C     1.4    1.5    5.1
N     1.8    0.0    5.0
C     2.2   -0.7    6.1
N     1.9   -0.2    7.4
N     2.8   -1.9    6.0
H    -1.2    1.4    4.5
H    -1.1    2.1    2.9
H     0.7    3.1    4.0
H     1.4    1.8    3.0
H     0.7    1.6    6.0
H     2.3    2.1    5.4
H     2.3   -0.2    4.2
H     2.3   -0.8    8.1
H     2.1    0.8    7.5
H     2.8   -2.2    5.0
N    -0.9   -1.4    4.8
C    -1.6   -2.3    5.7
H    -0.0   -1.1    5.0
H    -2.5   -2.7    5.2
H    -1.9   -1.8    6.6
H    -0.9   -3.1    6.0
