          35
 sphere cut out from bulk 
C    -1.5    0.5   -2.1
C    -0.7   -0.5   -1.3
O     0.1   -1.3   -1.9
H    -1.3    0.3   -3.1
H    -1.2    1.5   -1.8
H    -2.6    0.4   -1.9
N    -0.7   -0.6    0.1
C    -1.5    0.0    1.1
C    -2.4   -1.0    1.9
O    -2.4   -0.9    3.2
H    -0.1   -1.3    0.4
H    -0.8    0.3    1.9
C    -2.3    1.3    0.8
C    -2.9    2.0    2.1
C    -4.4    1.9    2.3
N    -4.8    0.6    2.7
C    -5.9   -0.1    2.2
N    -6.9    0.7    1.5
N    -5.9   -1.4    2.2
H    -3.1    1.0    0.1
H    -1.6    2.0    0.3
H    -2.6    3.1    2.0
H    -2.4    1.7    3.0
H    -4.9    2.2    1.4
H    -4.7    2.6    3.0
H    -4.2   -0.0    3.2
H    -7.7    0.2    1.3
H    -7.1    1.6    2.0
H    -6.8   -1.8    2.0
N    -3.2   -1.9    1.3
C    -3.5   -1.9   -0.2
H    -4.0   -2.2    1.9
H    -4.3   -2.7   -0.3
H    -2.6   -2.2   -0.7
H    -3.9   -1.0   -0.6
