          35
 sphere cut out from bulk 
C     1.6   -0.9    1.1
C     0.7   -0.4    2.2
O     0.4   -1.1    3.2
H     1.2   -1.8    0.7
H     2.6   -1.1    1.6
H     1.7   -0.2    0.3
N     0.2    0.8    2.0
C    -0.7    1.5    3.0
C    -1.4    2.6    2.2
O    -0.8    3.2    1.3
H     0.4    1.4    1.2
H    -1.4    0.7    3.3
C     0.1    2.0    4.2
C    -0.7    2.1    5.5
C    -1.3    0.8    6.0
N    -0.4   -0.3    5.9
C    -0.3   -1.3    6.9
N     0.6   -2.3    6.6
N    -0.8   -1.1    8.1
H     0.5    3.0    4.0
H     0.9    1.3    4.4
H    -1.5    2.9    5.5
H    -0.0    2.5    6.3
H    -2.3    0.6    5.5
H    -1.6    0.8    7.1
H    -0.2   -0.6    5.0
H     0.5   -3.2    7.1
H     0.8   -2.4    5.6
H    -0.6   -1.9    8.7
N    -2.7    3.0    2.6
C    -3.6    2.4    3.5
H    -3.0    3.8    2.1
H    -4.6    2.5    3.1
H    -3.6    2.9    4.5
H    -3.4    1.3    3.6
