          35
 sphere cut out from bulk 
C     0.1   -0.5   -0.7
C     0.1   -0.1    0.7
O     1.2    0.1    1.3
H    -0.6   -1.2   -1.0
H     1.1   -0.9   -1.0
H    -0.0    0.4   -1.3
N    -1.1   -0.0    1.4
C    -2.4   -0.3    0.9
C    -2.6   -1.7    0.5
O    -3.0   -2.0   -0.7
H    -0.9    0.3    2.4
H    -3.0   -0.2    1.9
C    -3.0    0.7   -0.1
C    -2.8    2.2    0.3
C    -3.4    3.2   -0.6
N    -4.9    3.1   -0.7
C    -5.7    3.3    0.4
N    -5.3    4.3    1.2
N    -6.7    2.5    0.5
H    -4.0    0.5   -0.2
H    -2.5    0.5   -1.1
H    -3.2    2.3    1.4
H    -1.7    2.4    0.4
H    -3.0    3.0   -1.6
H    -3.1    4.2   -0.3
H    -5.2    2.3   -1.2
H    -6.0    4.6    1.9
H    -5.0    5.2    0.7
H    -7.3    2.8    1.3
N    -2.4   -2.7    1.4
C    -1.9   -2.6    2.8
H    -2.5   -3.7    1.0
H    -2.1   -3.6    3.2
H    -2.5   -1.9    3.3
H    -0.8   -2.4    2.8
