          35
 sphere cut out from bulk 
C    -0.5   -0.1   -0.3
C    -0.6   -1.0    0.9
O    -0.1   -2.0    1.1
H    -1.4    0.1   -0.8
H     0.2   -0.7   -1.0
H     0.0    0.8   -0.1
N    -1.5   -0.5    1.9
C    -2.1    0.8    1.9
C    -1.1    1.9    2.4
O    -0.1    1.6    3.0
H    -1.4   -1.0    2.8
H    -2.4    1.1    0.9
C    -3.4    0.8    2.8
C    -3.3    0.1    4.2
C    -2.3    0.7    5.2
N    -2.0    2.1    5.3
C    -3.0    3.1    5.4
N    -4.2    2.6    6.0
N    -3.0    4.3    5.0
H    -4.2    0.3    2.3
H    -3.7    1.9    3.0
H    -3.1   -0.9    4.1
H    -4.3    0.2    4.6
H    -1.3    0.2    5.0
H    -2.5    0.2    6.2
H    -1.2    2.4    4.8
H    -4.8    3.4    6.2
H    -4.1    2.0    6.8
H    -2.1    4.4    4.5
N    -1.3    3.2    1.9
C    -2.5    3.7    1.3
H    -0.6    3.8    2.2
H    -2.9    3.0    0.6
H    -2.2    4.6    0.7
H    -3.2    4.0    2.0
