          35
 sphere cut out from bulk 
C    -0.9    0.4    0.2
C    -0.1    0.6    1.4
O     1.1    0.6    1.5
H    -0.8   -0.6   -0.2
H    -0.5    1.1   -0.6
H    -2.0    0.6    0.3
N    -0.9    0.8    2.6
C    -0.3    0.8    3.9
C     1.0    1.6    4.0
O     2.0    1.1    4.5
H    -1.9    0.7    2.5
H    -1.0    1.4    4.6
C    -0.1   -0.6    4.5
C     0.1   -0.7    6.0
C    -1.0   -0.1    6.9
N    -2.4   -0.2    6.5
C    -3.2   -1.3    6.8
N    -2.5   -2.5    7.1
N    -4.5   -1.4    6.9
H     0.7   -1.1    4.0
H    -1.1   -1.1    4.2
H     1.1   -0.3    6.3
H     0.2   -1.8    6.2
H    -0.8    1.0    6.9
H    -0.8   -0.4    7.9
H    -2.9    0.6    6.4
H    -3.1   -3.3    7.2
H    -1.6   -2.7    6.6
H    -4.8   -0.4    6.8
N     1.0    2.9    3.7
C    -0.0    3.7    3.0
H     1.9    3.4    3.7
H     0.1    4.8    3.1
H    -1.0    3.4    3.4
H    -0.1    3.5    1.9
