          35
 sphere cut out from bulk 
C    -1.1   -0.8    0.6
C    -1.2   -0.7    2.1
O    -0.8   -1.5    2.9
H    -0.2   -1.5    0.4
H    -1.0    0.1    0.1
H    -2.0   -1.3    0.2
N    -2.0    0.3    2.7
C    -2.6    1.5    2.0
C    -3.5    1.1    0.8
O    -3.4    1.5   -0.3
H    -2.0    0.3    3.7
H    -3.3    1.9    2.8
C    -1.6    2.6    1.7
C    -2.1    3.9    1.0
C    -3.4    4.4    1.6
N    -4.0    5.5    0.9
C    -4.8    5.4   -0.3
N    -5.1    4.1   -0.6
N    -5.1    6.5   -0.9
H    -0.8    2.2    1.0
H    -1.1    2.8    2.6
H    -1.3    4.6    1.1
H    -2.3    3.7   -0.1
H    -3.2    4.8    2.6
H    -4.2    3.6    1.7
H    -3.7    6.5    1.0
H    -5.6    4.1   -1.6
H    -4.4    3.4   -0.5
H    -5.7    6.3   -1.7
N    -4.5    0.2    1.1
C    -4.9   -0.4    2.4
H    -5.1   -0.0    0.3
H    -6.0   -0.8    2.3
H    -4.3   -1.2    2.6
H    -4.9    0.3    3.2
