          35
 sphere cut out from bulk 
C     0.1   -0.3   -0.2
C     0.2    0.1    1.2
O     1.2    0.4    1.8
H     0.4    0.5   -0.8
H    -0.9   -0.6   -0.5
H     0.7   -1.2   -0.4
N    -1.0    0.0    1.9
C    -1.1    0.2    3.4
C    -2.0   -0.8    4.0
O    -2.9   -1.3    3.3
H    -1.8   -0.4    1.6
H    -0.0    0.1    3.8
C    -1.5    1.6    3.8
C    -0.6    2.8    3.2
C    -1.1    4.2    3.7
N    -0.2    5.2    3.1
C    -0.3    6.5    3.5
N    -1.6    6.9    3.9
N     0.7    7.4    3.5
H    -1.6    1.7    4.9
H    -2.6    1.8    3.4
H    -0.6    2.7    2.1
H     0.4    2.6    3.6
H    -1.2    4.2    4.8
H    -2.1    4.3    3.3
H     0.7    4.9    3.0
H    -1.6    7.9    4.0
H    -2.4    6.5    3.4
H     1.6    6.9    3.3
N    -1.8   -1.2    5.2
C    -2.6   -2.1    6.0
H    -0.9   -0.8    5.7
H    -3.0   -1.6    6.9
H    -2.0   -3.0    6.3
H    -3.4   -2.4    5.3
