          35
 sphere cut out from bulk 
C    -0.8   -0.4   -0.5
C    -0.2   -0.3    0.9
O     1.0   -0.5    1.1
H    -0.0   -0.4   -1.2
H    -1.4    0.6   -0.7
H    -1.5   -1.2   -0.7
N    -1.1   -0.1    1.9
C    -2.5   -0.2    1.9
C    -3.1    0.9    2.9
O    -4.2    0.8    3.4
H    -0.6   -0.2    2.8
H    -2.9    0.1    0.9
C    -3.1   -1.6    2.2
C    -2.4   -2.4    3.4
C    -2.5   -1.8    4.8
N    -1.6   -0.7    5.0
C    -1.9    0.3    5.9
N    -3.2    0.6    6.2
N    -0.9    1.0    6.5
H    -3.0   -2.2    1.3
H    -4.2   -1.4    2.5
H    -1.4   -2.6    3.1
H    -2.9   -3.4    3.4
H    -2.3   -2.6    5.5
H    -3.5   -1.5    5.0
H    -0.6   -1.0    5.1
H    -3.3    1.4    6.7
H    -3.8    0.6    5.3
H    -0.0    0.6    6.4
N    -2.4    2.0    3.0
C    -2.7    3.2    3.8
H    -1.4    2.0    2.6
H    -3.8    3.1    4.1
H    -2.5    4.1    3.3
H    -2.1    3.2    4.8
