          35
 sphere cut out from bulk 
C     0.3    0.0   -0.1
C     0.4    0.1    1.4
O     1.4    0.3    2.0
H     1.3    0.2   -0.5
H    -0.4    0.8   -0.6
H    -0.1   -1.0   -0.4
N    -0.8    0.1    2.1
C    -2.1   -0.2    1.5
C    -2.8    1.0    0.8
O    -3.6    0.8   -0.1
H    -0.7    0.1    3.1
H    -2.1   -1.0    0.8
C    -3.0   -0.7    2.7
C    -4.5   -1.0    2.4
C    -4.7   -2.1    1.3
N    -6.1   -2.5    1.1
C    -6.9   -1.7    0.2
N    -8.2   -2.1    0.3
N    -6.6   -0.7   -0.5
H    -3.0    0.1    3.5
H    -2.5   -1.6    3.1
H    -5.0   -0.1    2.0
H    -5.0   -1.3    3.3
H    -4.2   -3.0    1.6
H    -4.2   -1.8    0.3
H    -6.6   -2.9    1.8
H    -8.8   -1.6   -0.4
H    -8.3   -3.1    0.2
H    -5.6   -0.3   -0.4
N    -2.4    2.2    1.2
C    -2.9    3.5    0.6
H    -1.6    2.2    1.9
H    -2.1    4.0    0.1
H    -3.3    4.1    1.4
H    -3.7    3.2   -0.1
