          35
 sphere cut out from bulk 
C     0.3   -0.0    0.6
C     0.2   -0.2    2.1
O     1.2   -0.4    2.8
H     1.3   -0.3    0.3
H    -0.4   -0.6    0.0
H     0.2    1.1    0.3
N    -1.0   -0.2    2.7
C    -2.4    0.0    2.2
C    -3.0   -1.2    1.4
O    -2.3   -1.9    0.7
H    -0.9   -0.4    3.7
H    -3.0    0.1    3.1
C    -2.6    1.3    1.4
C    -2.5    2.6    2.2
C    -1.0    3.1    2.4
N    -0.5    3.5    1.1
C     0.9    3.8    0.9
N     1.1    4.5   -0.3
N     1.9    3.3    1.5
H    -3.7    1.3    1.0
H    -2.0    1.3    0.5
H    -2.9    2.5    3.2
H    -3.0    3.4    1.7
H    -0.4    2.4    2.8
H    -1.0    4.0    3.1
H    -1.1    4.1    0.5
H     2.1    4.7   -0.4
H     0.6    5.4   -0.3
H     1.6    2.6    2.2
N    -4.3   -1.4    1.6
C    -5.2   -0.8    2.5
H    -4.6   -2.2    1.0
H    -5.3    0.3    2.3
H    -5.0   -0.9    3.5
H    -6.2   -1.2    2.3
