          35
 sphere cut out from bulk 
C     0.4    0.3   -0.0
C     0.3    0.3    1.5
O     1.3    0.4    2.2
H     1.0   -0.5   -0.3
H     0.8    1.3   -0.3
H    -0.6    0.2   -0.5
N    -1.0    0.2    2.0
C    -1.4    0.0    3.4
C    -1.1    1.1    4.4
O    -1.9    1.4    5.3
H    -1.7    0.1    1.3
H    -2.5    0.1    3.3
C    -1.2   -1.4    4.0
C     0.2   -1.7    4.5
C     0.4   -3.1    5.0
N     1.7   -3.4    5.4
C     2.1   -4.6    6.0
N     3.5   -4.7    6.2
N     1.3   -5.5    6.4
H    -1.5   -2.1    3.3
H    -1.9   -1.5    4.9
H     0.6   -1.0    5.2
H     0.9   -1.6    3.6
H     0.0   -3.8    4.3
H    -0.3   -3.2    5.9
H     2.5   -3.0    4.8
H     3.7   -5.5    6.8
H     3.9   -3.9    6.6
H     0.3   -5.4    6.1
N     0.1    1.8    4.3
C     0.5    2.8    5.2
H     0.8    1.4    3.6
H     1.3    3.4    4.8
H     0.9    2.3    6.2
H    -0.3    3.4    5.5
