          35
 sphere cut out from bulk 
C    -1.2    0.3    0.5
C    -0.4    0.6    1.8
O     0.6    1.4    1.8
H    -0.9    1.0   -0.2
H    -2.3    0.4    0.7
H    -1.0   -0.8    0.2
N    -0.6   -0.1    2.9
C    -1.7   -1.1    3.3
C    -1.8   -2.3    2.2
O    -2.8   -2.5    1.6
H    -0.0    0.2    3.7
H    -1.4   -1.5    4.2
C    -3.0   -0.4    3.5
C    -4.1   -1.3    4.1
C    -5.3   -1.6    3.2
N    -6.0   -0.5    2.6
C    -5.7    0.1    1.4
N    -6.5    1.2    1.2
N    -4.9   -0.4    0.5
H    -3.4    0.0    2.6
H    -2.8    0.5    4.2
H    -4.5   -0.8    5.0
H    -3.7   -2.2    4.5
H    -6.0   -2.3    3.8
H    -5.0   -2.3    2.4
H    -6.4    0.1    3.3
H    -6.4    1.5    0.2
H    -7.5    1.2    1.4
H    -4.3   -1.1    0.8
N    -0.6   -3.0    2.1
C     0.7   -2.9    2.8
H    -0.7   -3.8    1.4
H     1.3   -2.1    2.4
H     0.5   -2.7    3.9
H     1.2   -3.8    2.7
