          35
 sphere cut out from bulk 
C     1.2   -1.8    1.9
C     0.7   -1.0    3.1
O     1.4   -0.8    4.1
H     2.2   -1.3    1.6
H     0.5   -1.8    1.1
H     1.4   -2.8    2.2
N    -0.5   -0.4    2.9
C    -1.2    0.3    4.0
C    -2.7   -0.2    3.9
O    -3.1   -0.6    2.8
H    -1.1   -0.7    2.1
H    -0.8   -0.0    4.9
C    -1.2    1.8    3.8
C     0.2    2.5    3.9
C     0.8    2.6    5.3
N     1.1    1.4    6.0
C     0.4    1.0    7.1
N     0.5   -0.4    7.4
N    -0.2    1.8    7.9
H    -1.9    2.2    4.6
H    -1.7    2.0    2.9
H     0.1    3.5    3.5
H     0.9    2.0    3.3
H     0.1    3.2    6.0
H     1.7    3.3    5.3
H     1.4    0.6    5.3
H     0.6   -0.6    8.3
H     1.3   -0.9    6.8
H    -0.6    1.4    8.7
N    -3.5   -0.2    5.0
C    -3.0    0.2    6.3
H    -4.4   -0.5    4.8
H    -2.7    1.2    6.5
H    -2.2   -0.5    6.7
H    -3.9    0.0    7.0
