          35
 sphere cut out from bulk 
C    -0.6   -0.1    1.0
C    -1.2   -0.5    2.3
O    -0.6   -1.1    3.2
H    -1.2   -0.4    0.2
H     0.4   -0.7    0.9
H    -0.3    0.9    1.0
N    -2.5   -0.1    2.6
C    -3.6    0.5    1.8
C    -4.2   -0.5    0.8
O    -3.5   -1.3    0.1
H    -2.8   -0.5    3.5
H    -4.4    0.6    2.5
C    -3.2    1.8    1.1
C    -2.9    2.9    2.1
C    -4.1    3.4    3.0
N    -5.3    3.8    2.2
C    -6.3    3.0    1.7
N    -6.9    3.4    0.6
N    -6.7    1.9    2.3
H    -4.1    2.1    0.5
H    -2.4    1.7    0.5
H    -2.5    3.8    1.6
H    -2.1    2.6    2.8
H    -3.8    4.2    3.6
H    -4.5    2.6    3.6
H    -5.2    4.7    1.7
H    -7.6    2.8    0.3
H    -6.3    3.8   -0.2
H    -6.3    1.8    3.2
N    -5.5   -0.4    0.7
C    -6.2   -1.2   -0.3
H    -6.0    0.3    1.2
H    -7.2   -1.5    0.1
H    -5.7   -2.1   -0.6
H    -6.4   -0.7   -1.3
