          35
 sphere cut out from bulk 
C    -0.5    1.4    1.2
C     0.3    0.8    2.4
O     1.4    1.3    2.8
H    -1.1    2.2    1.6
H    -1.1    0.7    0.7
H     0.3    1.9    0.6
N    -0.1   -0.4    2.9
C    -1.4   -1.0    2.8
C    -1.6   -1.7    1.4
O    -2.8   -2.0    1.0
H     0.4   -0.7    3.8
H    -1.4   -1.9    3.5
C    -2.6   -0.2    3.1
C    -2.5    0.5    4.5
C    -3.0   -0.3    5.8
N    -2.4   -1.7    5.8
C    -1.1   -2.0    5.9
N    -0.8   -3.3    5.7
N    -0.1   -1.1    6.1
H    -3.5   -0.8    3.1
H    -2.8    0.6    2.4
H    -3.2    1.4    4.5
H    -1.5    0.9    4.6
H    -4.0   -0.4    5.8
H    -2.7    0.2    6.7
H    -3.0   -2.4    5.4
H    -1.4   -4.0    6.2
H     0.2   -3.5    6.0
H    -0.4   -0.2    6.2
N    -0.5   -2.1    0.8
C    -0.5   -2.8   -0.5
H     0.4   -1.8    1.2
H     0.1   -3.7   -0.4
H     0.0   -2.1   -1.3
H    -1.5   -2.9   -0.8
