          35
 sphere cut out from bulk 
C     0.1   -0.0    0.6
C    -0.2   -0.6    2.0
O     0.8   -1.1    2.7
H     1.1   -0.2    0.4
H    -0.1    1.0    0.6
H    -0.6   -0.5   -0.1
N    -1.5   -0.7    2.4
C    -2.6   -0.2    1.8
C    -2.8    1.3    1.6
O    -3.2    1.8    0.5
H    -1.6   -1.1    3.4
H    -2.7   -0.6    0.7
C    -3.9   -0.7    2.5
C    -4.0   -2.2    2.6
C    -4.7   -2.7    3.9
N    -4.5   -2.0    5.1
C    -3.3   -1.6    5.6
N    -2.2   -2.2    5.2
N    -3.1   -0.6    6.5
H    -4.8   -0.3    2.0
H    -3.9   -0.2    3.5
H    -3.0   -2.6    2.6
H    -4.5   -2.6    1.7
H    -4.5   -3.8    4.0
H    -5.8   -2.7    3.7
H    -5.3   -1.4    5.4
H    -1.4   -2.0    5.7
H    -2.3   -3.2    5.0
H    -4.0   -0.1    6.6
N    -2.3    2.2    2.6
C    -1.8    1.9    3.9
H    -2.4    3.2    2.3
H    -1.8    2.8    4.5
H    -0.7    1.6    3.8
H    -2.3    1.1    4.4
