          35
 sphere cut out from bulk 
C    -0.0   -1.7   -1.5
C     0.3   -0.7   -0.4
O     1.4   -0.0   -0.5
H     0.9   -2.0   -2.1
H    -0.7   -1.2   -2.2
H    -0.5   -2.6   -1.1
N    -0.5   -0.6    0.6
C    -1.8   -1.3    1.0
C    -1.5   -2.8    1.2
O    -2.1   -3.6    0.5
H    -0.2    0.1    1.3
H    -2.0   -0.9    2.0
C    -2.9   -1.0    0.1
C    -3.2    0.5   -0.2
C    -3.4    1.4    1.0
N    -4.6    0.9    1.8
C    -4.4    0.4    3.1
N    -5.7    0.2    3.7
N    -3.3    0.1    3.5
H    -3.8   -1.4    0.5
H    -2.8   -1.5   -0.9
H    -4.0    0.6   -0.9
H    -2.3    0.9   -0.8
H    -2.6    1.4    1.7
H    -3.6    2.4    0.7
H    -5.5    1.4    1.6
H    -5.6   -0.4    4.5
H    -6.4   -0.1    3.1
H    -3.3   -0.3    4.5
N    -0.7   -3.1    2.2
C     0.0   -2.3    3.1
H    -0.5   -4.2    2.3
H     0.9   -1.9    2.7
H     0.3   -2.9    4.0
H    -0.6   -1.5    3.5
