         400
 sphere cut out from bulk 
P     0.3    0.0   -1.6
I    -0.9   -2.1    0.5
I    -0.9    2.2    0.5
P     0.3    0.0    2.5
I     2.7    0.0    0.5
I    -2.2    0.2   -3.8
H    -0.2   -4.4   -0.2
I     1.4   -2.1   -3.8
H    -0.2    4.5    1.1
I     1.6    2.1   -3.8
H    -3.4    3.0   -0.8
H    -3.4   -3.0    1.7
H    -4.5    1.6   -0.8
H     4.7    1.6   -0.8
H    -4.5   -1.6    1.7
I    -2.2    0.0    4.7
H    -3.7    2.0   -3.0
C    -4.4    2.7   -1.2
H     4.7   -1.6    1.7
H     1.0   -4.6   -2.4
N     0.2   -5.3   -0.6
H     4.1    3.3   -0.8
I     1.5   -2.1    4.7
I     1.5    2.1    4.7
C    -4.4   -2.7    2.1
H     4.1   -3.3    1.7
H     3.9    2.5   -3.0
H    -0.8   -4.9   -2.4
N     0.2    5.4    1.5
H     1.1   -5.5   -0.2
C     4.9    2.7   -1.2
C     0.2   -5.3   -2.1
H    -3.7   -1.9    3.9
H     1.1    5.5    1.1
N    -4.4    2.7   -2.7
H     0.9    4.7    3.3
P     0.3    0.0   -5.8
C     4.9   -2.7    2.1
H     3.9   -2.5    3.9
H    -0.5   -6.0   -0.2
H    -0.8    5.1    3.3
C     0.2    5.4    3.0
N     4.9    2.7   -2.7
H    -5.1    3.3   -0.8
H    -4.0    3.6   -3.0
N    -4.4   -2.6    3.6
H    -0.4    6.1    1.1
H    -5.1   -3.3    1.7
I    -6.5    0.0    0.5
H     5.5    2.0   -3.0
N     4.9   -2.6    3.6
H    -5.3    2.5   -3.0
H     5.8    3.0   -0.8
H    -4.2   -1.6   -4.9
H    -4.0   -3.6    3.9
H    -3.7    1.9    5.3
H     0.4   -6.3   -2.4
P     0.3   -0.0    6.8
H     5.8   -3.0    1.7
H    -3.6   -3.3   -4.9
I     3.5   -5.9    0.5
H     3.9   -3.0   -4.9
I     3.5    5.9    0.5
H     1.0    4.7   -5.1
H     5.2    3.6   -3.0
H     5.5   -1.9    3.9
H     3.9    2.6    5.3
H    -5.3   -2.5    3.9
H    -0.8    5.0   -5.1
H     0.4    6.4    3.3
H     5.0   -1.6   -4.9
C    -4.4   -2.7   -5.2
H     5.2   -3.6    3.9
H    -4.0    3.6    5.3
C     0.2    5.4   -5.4
C     4.9   -2.7   -5.2
N    -4.3    2.7    5.7
H     0.9   -4.6    6.0
I    -3.3    5.9   -3.7
I    -3.2   -5.9   -3.7
H    -5.3   -3.0   -4.9
H     5.5    1.9    5.3
H    -0.8   -5.0    6.1
H    -5.3    2.6    5.3
N     4.9    2.7    5.7
I     7.1    0.2   -3.8
H     0.4    6.4   -5.0
I    -3.3   -5.8    4.7
H     5.7   -3.3   -4.9
I    -3.3    5.9    4.7
I    -2.0   -8.0    0.5
I    -5.7    5.9    0.5
I    -5.7   -5.9    0.5
H    -3.4   -2.5   -7.1
H     5.2    3.6    5.3
I    -2.0    8.0    0.5
I    -0.8    2.1   -8.0
I    -1.1   -2.1   -8.0
C     0.2   -5.3    6.4
I     2.7   -0.2   -8.0
N    -4.4   -2.7   -6.7
I     7.0    0.0    4.7
H     4.2   -1.9   -7.1
H    -0.1    4.4   -7.3
I     8.3   -2.1    0.5
I     8.3    2.2    0.5
N     4.9   -2.7   -6.7
N     0.2    5.4   -6.9
H    -3.4    3.0    7.5
I    -7.6    2.1   -3.8
H     0.4   -6.4    6.1
C    -4.4    2.7    7.2
H    -5.0   -1.9   -7.1
H     4.6    1.7    7.5
I    -7.8   -2.1   -3.8
H    -4.7    1.7    7.5
C     4.9    2.7    7.2
P    -8.9    0.0   -1.6
H     4.5   -3.6   -7.1
I     2.4   -8.0   -3.8
I    -0.8    2.1    8.9
I     5.9    5.9   -3.7
I    -1.1   -2.1    8.9
I     2.4    8.0   -3.8
H     1.1    5.5   -7.3
H    -4.7   -3.6   -7.1
H     4.1    3.5    7.5
I    -7.7   -2.1    4.7
I    -7.7    2.1    4.7
I     6.0   -5.9   -3.7
I     2.7   -0.2    8.9
P    -8.9    0.0    2.5
P    -4.5   -8.0   -1.7
P    -4.5    8.0   -1.7
H    -0.2   -4.4    8.2
P     4.8   -8.0   -1.7
P     4.8    8.0   -1.7
H    -0.4    6.1   -7.3
P    -4.5   -8.0    2.6
H     5.8   -2.5   -7.1
N     0.2   -5.3    7.9
I     2.4   -8.0    4.7
P    -4.5    8.0    2.6
I     5.9   -5.8    4.7
I     2.4    8.0    4.7
I     6.0    5.9    4.7
P     4.7   -8.0    2.6
H    -0.1   -4.4   -8.6
P     9.5    0.0   -1.6
P     4.7    8.0    2.6
H    -5.1    3.5    7.5
H    -8.2   -4.6   -2.4
H    -8.1   -5.5   -0.2
H    -8.1    5.5    1.1
P     9.5    0.0    2.5
H    -0.4   -9.9    1.1
H     1.2   -5.5    8.2
H     5.9    3.0    7.5
H    -0.5   10.0   -0.2
H     0.4    9.7   -2.4
P     0.3    0.0  -10.1
H    -8.3    4.7    3.3
H     9.1   -4.4   -0.2
H     8.4   -4.9   -2.4
H     9.1    4.5    1.1
H     0.4   -9.6    3.3
H     1.2   -5.5   -8.6
H    -0.4   -6.1    8.3
I    -6.5   -0.2   -8.0
H    -3.4    3.0   -9.3
H    -9.4   -4.4   -0.2
I   -10.1   -2.1    0.5
I   -10.1    2.2    0.5
H     8.4    5.1    3.3
N     0.2   -5.3   -8.9
H    -9.4    4.5    1.1
I     3.6   -5.8   -7.9
N    -9.1   -5.3   -0.6
H    -0.4   -6.1   -8.6
H     4.6    1.7   -9.3
H    -0.1    4.4    9.6
H    -4.7    1.7   -9.3
I     3.5    6.0   -8.0
H     1.1  -10.5    1.1
H     1.1   10.5   -0.2
H    -3.4   -2.5    9.7
N    -9.0    5.4    1.5
H     8.8   -6.0   -0.2
C    -9.0   -5.3   -2.1
I     3.5  -10.1    0.5
P    -9.0    0.0   -5.8
I     3.5   10.1    0.5
N     0.2   10.7   -0.6
N     0.2  -10.6    1.5
H    -8.3    4.7   -5.1
H     8.8    6.1    1.1
I     7.2   -8.0    0.5
H     4.1    3.5   -9.3
H     4.2   -1.9    9.7
N     9.4   -5.3   -0.6
I     7.2    8.0    0.5
P    -4.4   -8.0   -5.8
P    -4.4    8.0   -5.8
H     0.4   -9.6   -5.0
C     0.2   10.7   -2.1
C    -9.0    5.4    3.0
N     9.4    5.4    1.5
C    -4.4    2.7   -9.7
P     4.8   -8.0   -5.8
C     9.4   -5.3   -2.1
P     0.3    0.0   11.0
P     4.8    8.0   -5.8
I    -6.5   -0.2    8.9
H     8.4    5.0   -5.1
C     0.2  -10.6    3.0
H     1.1    5.5    9.6
H    -5.0   -1.9    9.7
P     9.5    0.0   -5.8
H    -8.8   -6.3   -2.4
C     4.9    2.7   -9.7
I    -6.9   -8.0   -3.8
H    -5.1    3.5   -9.3
I     3.6   -5.8    8.9
I    -3.2   10.1   -3.7
I    -6.9    8.0   -3.8
P    -8.9   -0.0    6.8
C     9.4    5.4    3.0
H    -8.3   -4.6    6.0
I     3.5    6.0    8.9
N     0.2    5.4    9.9
I    -3.3  -10.2   -3.7
I    -5.6   -5.8   -7.9
H     4.5   -3.6    9.8
N    -4.4   -2.7   10.1
H    -8.8    6.4    3.3
H    -0.5    6.1    9.6
H    -0.8   11.1   -2.4
P    -4.5   -8.0    6.8
H     5.9    3.0   -9.3
H    -4.7   -3.6    9.8
H     0.4    9.7    6.1
P    -4.5    8.0    6.8
H    -9.7   -6.0   -0.2
H   -10.0   -4.9   -2.4
I    10.6   -2.1   -3.8
H    -0.8  -10.9    3.3
I    -2.0   -8.0   -8.0
H    10.2   -4.6   -2.4
I    -2.0    8.0   -8.0
I    -5.7    6.0   -8.0
P     4.8   -8.0    6.8
H    -9.7    6.1    1.1
I    -6.9   -8.0    4.7
H     8.4   -5.0    6.1
N     4.9   -2.7   10.1
P     4.8    8.0    6.8
I    -6.9    8.0    4.7
I    -5.7  -10.1    0.5
I    -3.3  -10.1    4.7
I     8.2   -2.1   -8.0
H     5.8   -2.5    9.7
H    -0.2  -11.6    1.1
I    -5.7   10.1    0.5
I    10.8    2.1   -3.8
H    -0.2   11.6   -0.2
H    10.2    4.7    3.3
P     9.5   -0.0    6.8
I    -3.3   10.2    4.7
H     1.0   11.4   -2.4
H    10.4   -5.5   -0.2
H   -10.0    5.1    3.3
C     0.2   -5.3  -10.4
H     9.6   -6.3   -2.4
I     8.4    2.1   -8.0
H     0.9   -4.6  -10.8
H    10.4    5.5    1.1
C    -9.0    5.4   -5.4
H     0.9  -11.4    3.3
I    10.7   -2.1    4.7
I    10.7    2.1    4.7
I    11.9    0.0    0.5
H    -0.8   -5.0  -10.8
C     0.2  -10.7   -5.4
I   -11.4    0.2   -3.8
I    -5.6   -5.8    8.9
H    -8.8    6.4   -5.0
H     9.6    6.4    3.3
C     9.4    5.4   -5.4
I    -2.0   -8.0    8.9
I    -2.0    8.0    8.9
H    -0.8  -11.0   -5.1
I    -5.7    6.0    8.9
H    -8.1    5.5   -7.3
I     8.2   -2.1    8.9
H    -3.7    1.9  -11.5
N    -4.3    2.7  -11.2
C    -9.0   -5.3    6.4
H    10.2    4.7   -5.1
H   -10.0    5.0   -5.1
H    -0.4   -9.9   -7.3
I     6.0   10.1   -3.7
I   -11.4    0.0    4.7
I     6.0  -10.2   -3.7
I    -2.2    0.0  -12.2
I     8.4    2.1    8.9
I     1.5    2.1  -12.1
I     1.5   -2.1  -12.2
H    -8.8   -6.4    6.1
C     0.2   10.7    6.4
H     3.9    2.6  -11.5
H     1.0  -11.3   -5.1
H     9.1    4.4   -7.3
N     4.9    2.7  -11.2
H     0.4   -6.4  -10.8
H    -0.8   11.0    6.1
C     9.4   -5.3    6.4
N    -9.0    5.4   -6.9
H     9.6    6.4   -5.0
C     0.2    5.4   11.4
I     6.0  -10.1    4.7
H    -9.4    4.4   -7.3
C    -4.4   -2.7   11.6
I     5.9   10.2    4.7
N     0.2  -10.7   -6.9
H    10.2   -4.6    6.0
H     1.0    4.7   11.8
H    -4.0    3.6  -11.5
H   -10.0   -5.0    6.1
H    -8.1   -5.5    8.2
H    -4.2   -1.6   12.0
H     1.1  -10.5   -7.3
H    -0.8    5.0   11.8
N     9.4    5.4   -6.9
C     4.9   -2.7   11.6
H    -3.6   -3.3   12.0
H     0.9   11.4    6.0
H     5.5    1.9  -11.5
H     8.8    6.1   -7.3
H    -0.4    9.9    8.3
H     3.9   -3.0   12.0
H    -5.3    2.6  -11.5
H   -12.6    3.0   -0.8
H    -8.1   -5.5   -8.6
I   -10.1    2.1   -8.0
H     9.1   -4.4    8.2
H     9.6   -6.4    6.1
H     5.0   -1.6   12.0
H   -12.6   -3.0    1.7
N    -9.0   -5.3    7.9
H    -0.4    9.9   -8.6
H     5.2    3.6  -11.5
I   -10.3   -2.1   -8.0
H    -9.4   -4.4    8.2
H     9.1   -4.4   -8.6
I    -2.2    0.2   13.1
I     3.5  -10.0   -8.0
H     8.8   -9.9    1.1
H     8.8   10.0   -0.2
H    -8.1  -10.5    1.1
N     0.2   10.7    7.9
H    -8.1   10.5   -0.2
I     1.4   -2.1   13.1
I     1.6    2.1   13.1
H     4.1  -12.7   -0.8
H    -8.9    9.7   -2.4
H    -4.0  -12.4   -3.0
N     9.4   -5.3    7.9
H     0.4    6.4   11.8
I     7.2   -8.0   -8.0
I     7.2    8.0   -8.0
I     3.6   10.2   -7.9
H    -5.3   -3.0   12.0
H     1.2   10.5    8.2
H     4.1   12.7    1.7
H   -12.9    2.0   -3.0
H    -9.4   -4.4   -8.6
H    -8.8   -9.6    3.3
P    -8.9    0.0  -10.1
H    -3.4  -13.0   -0.8
H     8.8   -6.1    8.3
H    -9.7    6.1   -7.3
H    -3.4   13.0    1.7
H    -3.7   -1.9  -12.9
I   -10.1    2.1    8.9
P    -4.4   -8.0  -10.1
P    -4.5    8.0  -10.1
H     5.7   -3.3   12.0
H     1.2   10.6   -8.6
H    -4.0   12.4    3.9
H   -13.0   -1.9    3.9
H    -0.1  -11.6   -7.3
P     4.8   -8.0  -10.1
H    -8.1    5.5    9.6
H    -5.1  -12.7   -0.8
H    13.1    2.5   -3.0
H     3.9   -2.5  -12.9
H     8.8   -6.1   -8.6
I   -10.3   -2.1    8.9
P     4.8    8.0  -10.1
H    13.3    3.3   -0.8
