         400
 sphere cut out from bulk 
I    -0.3   -0.1    2.1
P    -0.3    2.1   -0.2
I     2.2    0.1   -1.4
I    -2.8    0.1   -1.4
P     2.1   -2.1    1.1
I    -0.4   -3.6   -0.3
P    -2.8   -2.1    1.1
H     2.1   -0.2   -3.8
I     2.2    3.7    1.0
I    -0.3    3.4   -3.1
I    -2.8    3.6    1.0
H    -2.8    0.9   -3.7
H    -1.1   -0.7    4.8
I     4.6   -0.1    2.1
P     4.6    2.1   -0.3
N     2.1   -0.3   -4.8
H     1.3   -0.9   -5.1
H    -2.0    2.0   -4.6
H    -2.1   -3.9   -3.1
H     1.0   -4.2   -3.2
H     0.1    4.7    2.7
N    -2.8    1.4   -4.6
I     2.1   -3.6    3.8
H     1.3    1.5   -5.3
H     0.4   -1.6    5.4
P    -5.3    2.1   -0.3
I    -5.3   -0.1    2.1
H     1.9   -5.0   -1.9
C    -0.6   -1.1    5.7
H    -1.2    4.2    3.8
I     4.6   -3.6   -0.3
H     2.9   -0.9   -5.0
I    -2.8   -3.5    3.8
C     1.9   -4.8   -3.0
H    -1.9   -0.2   -5.7
H     2.8   -4.2   -3.2
C     2.2    1.0   -5.5
I    -0.4   -2.6   -5.6
C    -0.5    5.1    3.5
H    -3.6    2.0   -4.6
H     3.1    1.5   -5.3
H     3.9   -0.5    4.9
H     0.4    0.7    6.3
C    -2.4   -4.9   -3.2
H    -2.0   -5.6   -2.4
H     1.3    5.2   -3.5
C    -2.8    0.4   -5.8
I    -5.3   -3.6   -0.3
H    -1.3   -1.8    6.2
N    -0.3    0.0    6.7
I     4.7    3.6   -3.1
H    -4.2   -4.6   -2.3
H    -3.7   -0.2   -5.7
H    -1.3   -5.9    3.2
H     0.9    4.6    5.0
H    -1.1    5.9    3.2
H     2.9    5.2   -3.5
H    -1.8    6.3   -2.4
H    -1.2    0.6    6.9
H     3.9    4.1    4.1
H     2.2    0.7   -6.6
I    -5.2    3.6   -3.1
H    -2.0   -5.3   -4.2
N    -3.8   -5.0   -3.2
N     0.4    5.4    4.7
H    -4.2    4.0    4.1
H     0.7   -5.6    4.4
N     2.1    5.8   -3.8
I     7.1    0.1   -1.4
H    -4.6   -1.4    5.4
I     2.0    2.7    6.4
H    -4.2   -4.4   -4.0
C     4.4   -1.0    5.7
H     4.8    4.8    2.7
H    -2.8    1.0   -6.7
H     2.1    6.8   -1.9
N     1.9   -6.1   -3.8
H     3.7   -1.8    6.2
P     7.1   -2.1    1.1
H    -5.1    4.8    2.7
I    -2.9    2.5    6.5
H     0.1   -0.3    7.5
H    -0.1   -7.1    2.7
H     1.1   -6.7   -3.5
I     4.5   -2.7   -5.5
C    -0.7   -6.8    3.5
H     1.0    6.2    4.4
C     4.8    4.6    3.8
H     5.7   -4.6   -2.3
H     5.4   -1.4    5.4
H     3.8   -5.3    4.2
H    -6.0   -0.5    4.9
H    -3.9    5.8   -3.3
H     1.9   -5.9   -4.8
C    -5.1    4.6    3.8
I    -7.8    0.1   -1.4
C    -2.1    6.9   -3.2
H     2.1    5.9   -4.8
C     2.1    7.0   -3.0
N     0.1   -6.4    4.7
H    -1.8    6.5   -4.2
H    -0.2    5.7    5.5
H    -4.6    0.8    6.4
H     3.8    0.5    7.0
H     2.7   -6.7   -3.5
H    -4.2   -6.0   -3.3
C    -5.5   -1.0    5.7
H     6.3    2.0   -4.6
H     7.1    0.9   -3.7
I     7.1    3.6    1.0
H     5.7    4.0    4.1
H    -4.4   -5.3    4.3
P    -7.8   -2.1    1.1
I    -5.4   -2.7   -5.5
I    -0.1    8.2   -0.3
H    -0.4   -6.1    5.5
N     4.6    0.0    6.8
H     5.7   -4.4   -4.0
H     1.2    7.6   -3.2
H    -6.0    4.1    4.1
N    -3.6    6.8   -3.2
H     5.3    0.8    6.4
I     2.0   -8.1    1.0
H     6.3   -0.2   -5.7
N     6.1   -5.0   -3.2
H    -4.0    7.2   -2.3
I    -0.2    2.0   -8.3
H    -1.4   -7.6    3.8
N     7.1    1.4   -4.6
N    -5.3    0.0    6.8
I    -7.7    3.7    1.0
H    -7.0   -0.9   -5.0
H    -7.8   -0.2   -3.8
H    -1.8    7.9   -3.1
N     4.6   -5.9    4.5
H     5.5   -5.3    4.3
H     4.1    6.5    4.2
I    -3.0   -8.2    1.0
H    -6.9    1.5   -5.3
I     7.1   -3.5    3.8
H     3.0    7.6   -3.2
H     0.7   -7.2    5.0
H    -4.2    6.5    4.3
H     4.6   -7.1    2.7
N     4.9    5.9    4.5
H    -6.2   -1.8    6.2
H    -7.1   -4.2   -3.2
H     5.8   -6.0   -3.3
I    -0.6   -8.4   -3.1
H     6.0    5.8   -3.3
N    -5.1    5.9    4.5
H    -4.8   -0.4    7.6
H    -6.1   -5.3    4.2
N    -5.3   -5.9    4.5
H     5.1   -0.4    7.6
N    -7.8   -0.3   -4.8
C     7.1    0.4   -5.8
H    -5.3   -7.1    2.7
P    -0.5   -4.1   -8.3
H     7.9   -3.9   -3.1
H    -4.0    7.4   -4.0
I     2.3    8.2    3.8
H     4.6   -5.9    5.5
H    -6.2    0.5    7.0
H    -7.0    5.2   -3.5
C     4.6   -7.2    3.8
H     7.9    2.0   -4.6
I     1.7   -1.8    9.0
H     4.8    5.9    5.5
I    -7.8   -3.6    3.8
I    -2.6    8.3    3.8
I     4.8    8.2   -0.3
H     3.7   -7.7    4.1
I     2.2    5.8   -7.3
H    -5.1    5.9    5.5
H     5.9    7.2   -2.3
C     7.6   -4.9   -3.2
C    -7.8    1.0   -5.5
H     5.7    6.5    4.3
I    -5.1    8.2   -0.3
I     2.0   -6.0   -7.3
H    -8.0   -5.0   -1.9
I    -2.7    5.8   -7.3
P    -0.5   -9.7   -0.2
I     4.7    2.0   -8.2
H    -5.3   -5.9    5.5
H    -5.9    6.5    4.2
C    -5.3   -7.2    3.8
I    -3.2   -1.9    9.1
N     6.3    6.8   -3.2
C    -8.0   -4.8   -3.0
I     9.6   -0.1    2.1
P     9.6    2.1   -0.2
H     8.1   -0.2   -5.7
H     7.2    1.0   -6.7
I    -0.7   -5.7    8.0
H    -4.4   -7.8    4.1
I    -2.9   -6.0   -7.3
I     4.5   -8.2   -3.1
I     7.0    2.5    6.5
I    -5.2    2.0   -8.2
H     7.9   -5.6   -2.4
P     2.3    9.7    1.1
H    -8.7   -0.9   -5.1
H     8.9   -0.7    4.8
I    -0.5    6.1    8.0
P    -2.6    9.7    1.1
I     2.0   -2.5   -9.6
H    -7.8    0.7   -6.6
I     9.6   -3.6   -0.3
H    -8.7    1.5   -5.3
P     2.0    4.2    9.2
H     5.9    7.4   -4.0
P     4.5   -4.1   -8.3
I    -5.4   -8.2   -3.1
H     5.5   -7.8    4.1
I    -3.0   -2.5   -9.7
H    -8.9   -4.2   -3.2
N    -7.8    5.8   -3.8
H     7.9   -5.3   -4.2
H    -7.2   -6.7   -3.5
H     8.7    4.2    3.8
P     2.3    3.5   -9.6
I   -10.2   -0.1    2.1
P   -10.2    2.1   -0.2
P    -3.0    4.2    9.1
P    -2.7    3.5   -9.5
I    -7.9    2.7    6.4
H    -7.8    6.8   -1.9
H     8.2    6.3   -2.4
I     9.6    3.4   -3.1
P     4.4   -9.7   -0.3
H    -8.6    5.2   -3.5
I     4.3   -5.7    8.0
I    -0.2    9.2   -5.6
P    -5.4   -4.1   -8.3
N    -8.0   -6.1   -3.8
I     6.9   -8.2    1.0
H    -6.2   -7.7    4.1
H    -6.9    7.6   -3.2
I    -0.5    2.6   10.4
H     8.7   -1.8    6.2
C     7.8    6.9   -3.2
H    -7.8    5.9   -4.8
H     8.6   -5.9    3.2
I   -10.3   -3.6   -0.3
C    -7.8    7.0   -3.0
P    -0.7   -3.4   10.4
C     9.3   -1.1    5.7
I     4.5    6.1    8.0
H    -2.2   -9.8   -4.6
H    -8.0   -5.9   -4.8
H    -9.6   -1.6    5.4
H     8.8    5.9    3.2
H     0.4   -1.0  -11.1
H     8.8    0.6    6.9
P    -5.5   -9.7   -0.3
H     8.1    6.5   -4.2
H    -9.8    4.7    2.7
C     9.4    5.1    3.5
I   -10.3    3.4   -3.1
H    -9.0    4.6    5.0
I     1.8   -9.2    6.4
I    -5.7   -5.7    8.0
P    -0.3    7.7   -8.3
I     9.5   -2.6   -5.6
H    10.0    4.7    2.7
I     6.7   -1.9    9.1
I    -8.0   -8.1    1.0
I    -5.4    6.1    8.0
H    -9.6    0.7    6.3
H    -3.9   -9.8   -4.6
H     1.0  -10.3   -5.3
H     0.6   10.2    5.4
I     4.5    2.6   10.4
H    -9.2   -5.6    4.4
H    -8.9   -6.7   -3.5
I     4.7    9.1   -5.5
I     7.3    8.3    3.8
N     9.6    0.0    6.7
H    -0.9   -0.1  -11.7
P     4.2   -3.4   10.4
I    -3.1   -9.3    6.5
H     8.1    7.9   -3.1
H    10.3   -1.6    5.4
I     7.0   -6.0   -7.3
H    -9.0    6.2    4.4
I     7.2    5.8   -7.3
N    -3.0  -10.4   -4.6
H    -1.0   10.0    6.2
I    -7.6    8.2    3.8
I    -5.2    9.1   -5.5
I    -0.1   11.7    2.1
H     2.8  -10.3   -5.3
I     1.9  -11.7   -1.4
C     9.2   -6.8    3.5
N    -0.1   -0.6  -11.9
N    -9.6    5.4    4.7
H    -3.1  -10.9   -3.7
I    -0.2    5.5  -10.7
H    -8.7    7.6   -3.2
I   -10.3   -2.6   -5.6
C   -10.5   -1.1    5.7
H     8.5   -7.6    3.8
H   -11.0   -0.7    4.8
I    -5.5    2.6   10.4
I    -7.7    5.8   -7.3
H    10.3    0.7    6.3
P     1.8   -7.6    9.2
H    -4.6   -1.0  -11.2
I    -0.5  -11.9    2.1
H     1.5   10.9   -5.1
C   -10.5    5.1    3.5
H    10.9   -4.2   -3.2
I     6.9   -2.5   -9.7
C    -0.4   10.7    5.7
H    -0.8   11.1    4.8
I    -3.1  -11.7   -1.4
I    12.1    0.1   -1.4
N   -10.2    0.0    6.7
P     7.0    4.2    9.1
P     7.3    9.7    1.1
I     2.4   11.9   -1.4
H     1.9    1.7   12.0
H     0.6    0.1  -12.3
P    12.1   -2.1    1.1
I    -2.6   11.9   -1.4
P     4.7    7.7   -8.3
P    -3.2   -7.6    9.1
I    -7.9   -6.0   -7.3
H    11.2   -0.9   -5.1
C     1.9  -10.8   -5.5
I    -8.2   -1.8    9.0
P    -5.7   -3.4   10.4
P    -7.6    9.7    1.1
H    -9.8   -0.3    7.5
H     3.1   10.9   -5.0
H     9.8   -7.1    2.7
H     5.3   -1.0  -11.2
H     4.0   10.0    6.2
H     6.1   -9.8   -4.6
I    -0.4   -6.4  -10.7
H     2.3   11.6   -3.8
P     7.2    3.5   -9.5
H    11.2    1.5   -5.3
P    -5.2    7.7   -8.3
H    -4.4   10.4    5.4
H   -11.1    4.2    3.8
H     4.1   -0.1  -11.8
N    10.3    5.4    4.7
H    -3.1    1.4   12.1
H     9.5   -6.1    5.5
H     9.7    5.7    5.5
H    10.0   -0.3    7.5
I     2.3    1.9  -12.2
H   -10.0   -7.1    2.7
N    -9.8   -6.4    4.7
H    12.0   -0.2   -3.8
N     2.3   11.5   -4.8
I    12.1    3.7    1.0
I    -2.7    2.0  -12.3
H     1.9  -12.0   -3.8
I    -7.9   -2.5   -9.6
H     0.1  -11.1    6.3
H    -9.2   -7.2    5.0
I     1.8   -5.3   11.4
P    -7.7    3.5   -9.6
I     9.8    8.2   -0.3
H    10.8    4.6    5.0
N    10.1   -6.4    4.7
I     4.8   11.7    2.1
H    -0.9   -2.4  -12.5
H    10.7   -5.6    4.4
P     2.0   -8.3   -9.6
P    -7.9    4.2    9.2
H    11.2    5.2   -3.5
I   -12.8    0.1   -1.4
H   -10.1    5.7    5.5
I    -0.4   -9.8   -8.3
I     4.7    5.5  -10.7
I     4.4  -11.9    2.1
H   -11.2   -1.8    6.2
H   -11.9    2.0   -4.6
I    -5.1   11.7    2.1
I     9.7    2.0   -8.3
H   -11.0    5.9    3.2
I     9.4   -8.4   -3.1
P    -2.9   -8.3   -9.5
P   -12.8   -2.1    1.1
H     4.1   11.3    4.9
N    12.0   -0.3   -4.8
H     5.6   10.4    5.4
H   -12.0   -3.9   -3.1
I   -10.1    8.2   -0.3
H    11.8   -5.0   -1.9
H     1.0    0.5   13.0
N     4.9   -0.6  -12.0
I    -3.2   -5.4   11.4
H     2.0  -11.1   -6.6
H    -1.7   11.6   -5.7
