         400
 sphere cut out from bulk 
P     0.6   -0.4   -1.6
I    -1.7   -1.1    0.5
I     1.5    1.7    0.6
P     0.8   -1.0    2.7
I     2.3   -2.4    0.2
H    -3.4    0.9    0.8
H    -2.6    2.5   -0.8
I    -1.1    1.6   -3.4
N    -4.0    1.8    0.7
H     4.0    1.6    0.8
C    -3.7    2.3   -0.7
H    -4.0    1.5   -1.4
I    -0.3   -2.5   -3.8
H    -3.7    2.4    1.4
I     3.0    0.2   -3.6
H     1.3    3.8   -2.4
H    -0.2   -4.6   -1.0
H     1.6    2.9    3.5
H     0.3    4.4    2.0
I    -1.0    0.5    4.7
H    -3.9   -2.4   -1.8
H    -0.3    4.5   -2.5
H    -5.0    1.6    0.8
H    -2.5   -3.5    3.1
I     0.0   -3.9    3.6
H    -3.8   -2.5    2.7
N     5.0    1.8    0.7
H    -4.3    3.2   -0.8
H     5.0    1.5   -1.4
C     0.8    4.7   -2.6
I     3.5   -0.4    4.2
H    -2.8   -2.4   -4.0
H     0.5   -5.3    1.2
C     1.1    3.8    3.9
H     1.5   -5.3   -1.0
N     0.9    4.8    2.7
H     0.2    3.6    4.3
C     0.4   -5.5   -0.9
H     3.8   -3.4   -2.5
H     5.6    0.9    0.8
I    -1.8    5.4    0.2
H     4.7    3.2   -0.8
N    -3.5   -3.5    3.0
H     1.8    5.0    2.3
C     5.3    2.3   -0.7
C    -4.2   -3.2   -2.6
H     1.1    5.5   -1.8
P     0.4    0.1   -5.9
H    -3.6   -4.1   -2.4
H     5.1   -2.4   -1.8
H    -3.7   -4.2    2.2
H     5.3    2.4    1.4
N     0.2   -6.0    0.5
N    -3.9   -2.6   -3.9
H    -4.4   -1.7   -4.1
H    -0.8   -6.2    0.7
C     4.8   -3.2   -2.6
H     4.6   -1.7   -4.1
H     5.2   -2.5    2.7
H     0.5    5.7    3.1
H     0.1   -6.3   -1.6
H     1.8    4.3    4.6
H     0.8    4.6   -4.7
N     1.0    5.3   -3.9
H    -5.2   -3.4   -2.5
I    -4.0    3.9    3.7
H     3.7   -4.0    4.1
H     0.2   -0.5    6.9
H     6.4    2.5   -0.8
I    -5.5   -0.4    4.2
N     5.1   -2.6   -3.9
H     0.8   -6.9    0.7
H    -4.1   -3.3   -4.7
I    -6.0    0.2   -3.6
H     2.1    5.4   -4.0
H     5.3   -4.2    2.2
I    -3.4   -6.2    0.7
I    -6.7   -2.4    0.2
C    -4.2   -3.9    4.3
N     5.5   -3.5    3.0
H    -4.0   -3.2    5.1
H     5.4   -4.1   -2.4
P    -3.7    1.7    6.0
H    -3.9    1.6   -6.0
I     5.0    3.9    3.7
I     7.3   -1.1    0.5
H     0.5    6.2   -4.1
I     3.1    6.7    0.5
H    -4.0    3.2   -5.3
H    -0.6   -4.3   -6.0
H     4.9   -3.3   -4.7
C     4.8   -3.9    4.3
I     1.3    3.0   -6.9
H     1.5   -1.5    7.3
N     0.9   -0.7    7.6
I    -2.3   -0.4   -7.3
H     0.9   -5.3   -5.5
H    -3.8   -4.9    4.5
I    -7.5    1.7    0.6
H     6.2   -2.4   -4.0
H    -5.3   -4.0    4.1
H     1.5    0.2    7.6
H     3.8    2.6   -6.3
I     3.1   -6.4   -3.4
H     5.0   -3.2    5.1
I    -4.4    5.3   -3.8
N    -4.2    2.6   -6.2
H     5.0    3.2   -5.3
I     4.6    5.3   -3.8
H     6.5   -3.5    3.1
H     5.1    1.6   -6.0
P    -3.4    6.8    2.7
C     0.1   -5.2   -6.2
P     5.3    1.7    6.0
I     2.2   -1.6   -7.8
I     2.4    2.6    7.4
N     4.8    2.6   -6.2
H    -2.4    3.2   -7.2
P    -3.5    7.4   -1.6
I     5.6   -6.2    0.7
H     5.2   -4.9    4.5
P    -8.4   -0.4   -1.6
H    -5.2    2.6   -6.3
P     0.4   -6.1    6.0
I    -1.9   -7.6   -3.6
I    -0.8    7.5    4.3
H    -7.4    2.9    3.5
H     1.3   -4.1   -7.5
P    -8.2   -1.0    2.7
I     7.9    1.6   -3.4
C    -3.5    3.1   -7.4
H    -0.5   -6.1   -6.3
I    -1.2    8.1   -3.6
H    -7.7    3.8   -2.4
I     2.3   -4.0    7.6
I    -5.9    6.7    0.5
H     1.5    8.8    0.7
I    -2.1    3.8    7.8
C     0.3   -0.9    8.9
I     7.2    5.4    0.2
H    -0.3   -1.8    8.8
I    -3.5   -0.5    8.3
N     0.7   -4.9   -7.6
H    -7.2    5.0    2.3
I     3.0   -7.3    4.6
I    -3.7   -4.8   -6.9
H    -0.4   -0.1    9.2
P     5.6    6.8    2.7
H    -7.5   -5.3   -1.0
I    -2.2   -5.0    7.4
I    -5.9   -6.4   -3.4
I     8.0    0.5    4.7
P     5.5    7.4   -1.6
I     2.4   -9.0    0.5
H    -3.8    2.5   -8.2
I    -1.5   -8.2    4.3
P    -4.2   -8.3   -1.6
H    -3.9    4.1   -7.6
H    -0.1    9.5    0.7
H    -0.0   -4.7   -8.3
C    -7.9    3.8    3.9
H     0.8    9.4   -1.6
H    -7.2    4.3    4.6
H    -6.9    5.4   -4.0
C     5.5    3.1   -7.4
P     4.8   -8.3   -1.6
N     0.9    9.7    0.5
P     9.6   -0.4   -1.6
H     1.1   -1.0    9.7
N    -8.1    4.8    2.7
I     8.7   -2.5   -3.8
H    -7.9    5.5   -1.8
H     1.3   -5.7   -7.9
C    -8.2    4.7   -2.6
I    -2.7    9.5    0.7
I     5.3   -4.8   -6.9
H    -8.7    4.4    2.0
I     6.7   -0.4   -7.3
I     5.5   -0.5    8.3
H     8.8   -4.6   -1.0
H     5.1    4.1   -7.6
H     5.3    2.5   -8.2
H    -8.5   -5.3    1.2
H     8.7    4.5   -2.5
P    -4.1   -8.9    2.7
I    -1.7    6.4   -7.7
P     9.8   -1.0    2.7
C    -8.6   -5.5   -0.9
I    -6.6    2.6    7.4
H     6.6    3.2   -7.2
P     0.6    4.4    9.3
C     1.1   10.2   -0.9
I     3.7    8.4    4.6
P    -3.9   -2.6   -9.2
H    -3.6    6.7    6.9
N    -8.0    5.3   -3.9
H    -9.2   -4.6   -1.0
H     8.2   -6.2    0.7
I    -9.3   -2.5   -3.8
H    -0.2   -9.5   -4.1
P    -8.6    0.1   -5.9
H     0.4  -10.2   -1.8
I    -6.8   -1.6   -7.8
I    -9.0   -3.9    3.6
H    -8.8    3.6    4.3
I    -6.0   -7.3    4.6
H     9.3    4.4    2.0
I     9.0   -3.9    3.6
P     4.9   -8.9    2.7
H    -8.2    4.6   -4.7
H     1.2   10.4    1.2
H    -0.2  -10.0    3.1
P    -3.6    8.0   -5.9
P    -4.3   -7.7   -5.9
I    -2.5  -10.3    0.2
H    -7.5   -1.5    7.3
I     3.8    9.3   -3.4
P     0.9    5.3   -9.2
I    10.5    1.7    0.6
H    -9.3    4.5   -2.5
N    -8.8   -6.0    0.5
H    -8.5    5.7    3.1
H     1.6    0.0  -10.6
H     2.2   10.4   -1.0
H    -7.5    0.2    7.6
P    -4.1   -3.4    9.3
H     9.2    3.6    4.3
I   -10.1    1.6   -3.4
P     4.7   -7.7   -5.9
H    -8.2   -6.9    0.7
I    -7.7    3.0   -6.9
P     5.1   -2.6   -9.2
I   -10.7   -1.1    0.5
H    -0.0   -0.7  -10.9
I    -6.7   -4.0    7.6
I    -5.3    8.4    4.6
H     1.1  -10.7    2.3
I     2.8    7.4   -7.5
C     9.4   -5.5   -0.9
H     9.5   -5.3    1.2
H    -8.9   -6.3   -1.6
I     7.1   -7.6   -3.6
N     9.2   -6.0    0.5
P     4.9   -3.4    9.3
I   -10.0    0.5    4.7
H     5.4    6.7    6.9
H     1.4  -10.3   -4.0
H    -2.3    7.4    8.0
P     9.4    0.1   -5.9
I     6.9    3.8    7.8
N    -8.1   -0.7    7.6
H     0.5   11.1   -1.0
I     1.5    7.3    8.3
C     9.8    4.7   -2.6
N     0.3  -10.4   -3.9
I    -1.2   -3.7  -10.4
H    -8.1   -5.3   -5.5
I    -6.6   -9.0    0.5
H     9.1   -6.3   -1.6
H    -8.8   -0.5    6.9
I    -5.2    9.3   -3.4
H     8.4   -4.3   -6.0
C    -3.3    7.4    7.8
H    -8.5    6.2   -4.1
H    -3.9    1.0   10.5
N     0.2  -10.9    2.7
I     6.8   -5.0    7.4
H    10.3    3.8   -2.4
C     0.1  -11.0   -2.6
P     5.4    8.0   -5.9
P     1.1    9.5    6.0
N     9.9    4.8    2.7
C     1.0   -0.4  -11.3
I     2.1   -8.3   -7.5
I    -1.0    3.2  -10.9
I     6.3    9.5    0.7
H    -4.4   -7.3    7.6
H     9.5    5.7    3.1
H     9.2   -0.5    6.9
H    -1.0  -11.2   -2.5
H     4.6   -7.3    7.6
H     0.2    9.6   -6.3
H    -0.4  -11.3    2.0
C    10.1    3.8    3.9
H    -3.7    5.9    9.2
H    -7.7   -4.1   -7.5
I    11.3   -2.4    0.2
I    -0.1    1.8   11.4
H    10.6    2.9    3.5
H    -7.5    8.8    0.7
H    10.1    5.5   -1.8
H    -9.8   -6.2    0.7
H    -2.6    1.8   11.2
H     5.1    1.0   10.5
H     9.8    4.6   -4.7
I     3.9  -10.4   -3.8
H    10.5   -5.3   -1.0
I     7.8    8.1   -3.6
H    -3.0   -8.3    8.0
I     0.8   -8.4    8.3
H     1.6   10.4   -5.5
H     1.4   -1.3  -11.7
H     4.0    6.8    8.9
I     8.2    7.5    4.3
I     3.5    4.2  -10.6
H   -11.6    2.5   -0.8
H    -3.7    8.4    7.6
N    -3.7    1.7   11.3
I     7.5   -8.2    4.3
N    -4.0    6.8    9.0
N    10.0    5.3   -3.9
H     9.8   -6.9    0.7
H     9.5    6.2   -4.1
H     0.1  -11.1   -4.7
C    -4.0   -8.3    7.8
H    -3.1   10.8    4.5
C    -8.9   -5.2   -6.2
I   -10.8    5.4    0.2
H    -4.3   -9.0    6.9
H    -9.6   -4.3   -6.0
H    -3.0   11.5    2.2
H    10.8    5.0    2.3
C     5.7    7.4    7.8
H    -4.2    2.5   11.1
H     5.3    5.9    9.2
P    -8.6   -6.1    6.0
H     0.3    1.4  -12.1
H     0.6  -11.9   -2.4
I     6.5  -10.3    0.2
C     9.1   -5.2   -6.2
I    -1.7   -3.4   11.6
I    -5.1  -10.4   -3.8
H    -2.9   11.6   -2.4
H     8.5   -6.1   -6.3
I    -4.2   -0.4  -11.5
C     0.8   10.5   -6.2
I    -6.2    7.4   -7.5
H    -5.0    6.8    8.9
N    -8.3   -4.9   -7.6
H     4.7   -9.0    6.9
H     0.0   -5.3   11.1
I    -2.4   -9.3   -7.7
H     1.1  -11.4    4.6
N     5.0    6.8    9.0
H     4.8    2.5   11.1
I     0.7   11.8    3.6
I     3.3   -4.7  -11.0
I     7.3    6.4   -7.7
H   -11.5   -3.5    3.1
C     5.0   -8.3    7.8
H    -7.7   -5.7   -7.9
I     4.8   -0.4  -11.5
I     3.3   -2.1   11.8
N     0.7    0.5  -12.4
H     9.9   -5.3   -5.5
N     9.9   -0.7    7.6
H     5.3    8.4    7.6
H   -12.4    0.9    0.8
H    10.8    4.3    4.6
H    -6.8   10.4   -1.0
I    12.0    0.2   -3.6
C     0.4  -11.9    3.9
C    -8.7   -0.9    8.9
H     8.7   -1.8    8.8
H     0.3   -6.9   10.5
H    -7.9   -1.0    9.7
N     5.3    1.7   11.3
H    -8.2    9.4   -1.6
H     8.6   -0.1    9.2
N    -8.1    9.7    0.5
I    -5.5    4.2  -10.6
I    10.3    3.0   -6.9
H    -1.8   12.2    3.1
P     9.4   -6.1    6.0
H   -11.8   -2.4   -4.0
H     1.6   -6.0   11.1
I     3.1    4.5   11.5
H     6.7    7.4    8.0
H     0.1   11.3   -6.0
N     0.5   -6.2   11.2
H     2.0   10.0   -7.9
H    10.5   -1.5    7.3
N    -2.8   12.2    3.0
H    -0.5  -12.1    4.3
C     9.3   -0.9    8.9
H    -7.4    0.0  -10.6
C    -7.9   10.2   -0.9
H    -3.8    7.4    9.8
H    -3.3    6.5  -10.7
C   -12.7    2.3   -0.7
H    -9.5   -6.1   -6.3
H     3.3   -8.9    8.9
H     6.0   -8.3    8.0
H    11.1    5.4   -4.0
H    10.5    0.2    7.6
C    -3.5   11.7    4.3
H     6.4    1.8   11.2
H    -9.3   -1.8    8.8
H   -12.7    2.4    1.4
I    -9.8    7.5    4.3
