         400
 sphere cut out from bulk 
P     0.1    0.1    0.1
I    -0.6   -3.0    0.2
I    -2.4    0.6   -1.9
I     2.0   -0.3   -2.5
I    -1.7    0.6    2.7
I     0.8    3.2    0.0
I     2.7   -0.4    2.1
H     0.3    2.4   -3.1
H    -0.0   -2.1    3.4
H    -0.2    2.4    3.6
H    -3.1   -3.0    0.8
H    -2.9    3.2    1.1
H     3.2   -3.0   -0.9
H     3.4    3.2   -0.5
H    -4.0   -2.1   -1.2
H     1.3   -2.2   -4.0
H    -4.0    2.4   -0.9
C    -0.1    3.2   -3.6
H     4.2   -2.2    1.2
C     0.4   -3.0    3.8
H    -1.2    3.2   -3.5
H     1.5   -3.0    3.7
H     4.4    2.4    1.5
N    -4.1   -3.0    0.7
H    -0.0   -3.9    3.4
H    -4.5   -2.2    1.2
H    -4.4    2.4    1.5
H     0.3    4.1   -3.1
C    -4.0    3.2    1.0
N     0.2    3.2    4.1
H     1.3    3.2    4.0
C     4.3   -3.0   -0.8
H    -0.9   -3.0   -4.3
H     4.7   -2.1   -1.2
C    -4.4   -3.0   -0.8
H     4.8    2.4   -0.9
N    -4.4    3.2   -0.4
H    -0.2    4.1    3.6
N     4.4    3.2   -0.4
N     4.6   -3.0    0.7
N     1.1   -3.0   -4.6
H     1.3   -3.9   -4.0
H    -4.0   -3.9   -1.2
H    -4.0    4.1   -0.9
H     4.2   -3.9    1.2
C     4.8    3.2    1.0
C    -0.2   -3.0   -5.1
N     0.2    3.2   -5.1
H    -0.2    2.4   -5.5
N     0.0   -3.0    5.3
H    -4.5   -3.9    1.2
H    -0.4   -2.1   -5.7
P    -4.2    0.1   -4.5
H     0.4   -2.2    5.7
P     0.1   -6.2    0.1
H     4.4    4.1    1.5
H    -4.4    4.1    1.5
H     1.3    3.2   -5.2
H    -1.0   -3.0    5.4
H     4.7   -3.9   -1.2
H    -5.4    3.2   -0.5
P    -4.2    0.1    4.7
H     4.8    4.1   -0.9
P     4.5    0.1   -4.5
H    -5.5   -3.0   -0.9
H     1.8   -3.0   -5.3
P     0.1    6.4    0.1
C    -0.1    3.2    5.5
I    -6.1   -0.4    2.1
H     0.3    2.4    6.0
H     5.7   -3.0    0.8
P     4.5    0.1    4.7
I     2.0   -5.8   -2.5
I    -3.8   -3.0   -4.4
H    -1.2    3.2    5.6
I    -2.4    5.9   -1.9
I     2.7   -5.7    2.1
I     6.4    0.6   -1.9
I    -3.5   -3.0    4.8
I    -1.7    0.6   -6.4
I    -1.7    5.9    2.7
H     5.9    3.2    1.1
I     3.8    3.2   -4.6
I     3.8    3.2    4.6
H    -0.2    4.1   -5.5
H     0.4   -3.9    5.7
H    -0.4   -3.9   -5.7
I     2.0   -0.4    6.7
I    -6.8   -0.3   -2.5
H     0.3    4.1    6.0
I     5.0   -3.0   -4.4
I    -2.4   -6.7   -1.9
I    -1.7   -6.7    2.7
I    -4.9    3.2   -4.6
I    -4.9    3.2    4.6
I     2.0    6.8   -2.5
I     2.6   -0.4   -7.1
I     7.0    0.6    2.7
I     2.7    6.9    2.1
I     5.2   -3.0    4.8
I    -2.4    0.6    7.3
I    -7.9    3.2    0.0
I    -6.1   -5.7    2.1
P    -8.6    0.1    0.1
H    -7.3   -3.0    3.7
H    -7.5   -2.2   -4.0
I     8.2   -3.0    0.2
P    -4.2   -6.2   -4.5
P    -4.2    6.4   -4.5
P    -4.2   -6.2    4.7
I     6.4    5.9   -1.9
P     8.9    0.1    0.1
I    -1.7    5.9   -6.4
P     4.5   -6.2   -4.5
H     7.6    3.2   -3.5
P     4.5   -6.2    4.7
I     2.0   -5.7    6.7
P     4.5    6.4   -4.5
P    -4.2    6.4    4.7
H     0.3   -8.4   -3.1
P     0.1    0.1   -9.1
H    -7.5    3.2    4.0
P     4.5    6.4    4.7
H    -4.1   -2.1    7.9
H     4.3    2.4   -7.8
I    -6.8   -5.8   -2.5
H    -6.9   -3.0   -5.3
H    -4.4    2.4   -7.8
H    -0.2   -8.5    3.6
H    -2.9    3.2   -8.2
H    -0.0    8.6    3.4
P     0.1    0.1    9.3
H    -8.4    2.4   -3.1
H    -7.5   -3.9   -4.0
H     4.2   -2.2   -8.1
I    -6.1   -0.4   -7.1
I     0.8   -9.3    0.0
N    -7.6   -3.0   -4.6
H     3.1   -3.0    8.3
H     7.8   -3.0   -4.3
H    -3.9    2.4    8.2
H    -4.0   -8.5   -0.9
H     4.6   -2.1    7.9
I     6.4   -6.7   -1.9
I    -6.1    6.9    2.1
I    -1.7   -6.7   -6.4
I     2.6   -5.7   -7.1
I    -0.6   -3.0   -8.9
H    -3.1   -3.0   -8.4
H    -4.6   -2.2   -8.1
I    -6.8   -0.4    6.7
I     7.0    0.6   -6.4
I    -0.6    9.5    0.2
I     7.0    5.9    2.7
H    -4.0    8.6   -1.2
H     8.7   -2.1    3.4
H     4.4   -8.4    1.5
H    -4.4   -8.4    1.5
H    -8.8   -2.1    3.4
H     8.6    2.4    3.6
H     1.3    8.7   -4.0
H    -7.5    3.2   -5.2
C    -8.3   -3.0    3.8
I    -2.4    5.9    7.3
I     6.4    0.6    7.3
C    -4.0    3.2   -8.2
H     4.2    8.7    1.2
I     0.8    3.2   -9.2
H    -4.1   -3.9    7.9
H     3.4    3.2    8.6
I     0.8    3.2    9.2
H     4.8   -8.5   -0.9
I    -9.3   -3.0    0.2
I     2.0    6.9    6.7
H     4.8    2.4    8.2
H     4.3    4.1   -7.8
H    -2.9   -9.3    1.1
H    -4.4    4.1   -7.8
H     4.2   -3.9   -8.1
C     4.2   -3.0    8.4
H    -4.5    8.7    1.2
H    -8.4    4.1   -3.1
H     9.1    2.4   -3.1
H     7.8   -3.0    5.4
I    -0.6   -3.0    9.4
H    -8.9    2.4    3.6
C     8.7    3.2   -3.6
I    -6.8    6.8   -2.5
H     4.7    8.6   -1.2
H     3.4   -9.3   -0.5
H     7.5    3.2    5.6
N    -4.2   -3.0   -8.5
H    -3.9    4.1    8.2
N    -8.5    3.2    4.1
H     4.6   -3.9    7.9
C    -4.5   -3.0    8.4
C    -0.1   -9.3   -3.6
H    -4.6   -3.9   -8.1
H    -1.2   -9.3   -3.5
C     4.8    3.2   -8.2
H    -3.1    9.5    0.8
I     7.0   -6.7    2.7
C    -8.9    3.2   -3.6
H     3.2    9.5   -0.9
I     9.6    3.2    0.0
H    -0.2   -8.5   -5.5
N     4.6   -3.0   -8.5
H     8.7   -3.9    3.4
H    -8.8   -3.9    3.4
H     8.6    4.1    3.6
I    -2.4   -6.7    7.3
C    -4.0   -9.3    1.0
N     0.2   -9.3    4.1
N    -4.3    3.2    8.7
H     1.3   -9.3    4.0
I     2.6    6.9   -7.1
N     4.4    3.2    8.7
C     0.4    9.5    3.8
N    -4.4   -9.3   -0.4
N     4.4   -9.3   -0.4
H    -8.3   -2.2    5.7
H     4.8    4.1    8.2
H     1.5    9.5    3.7
H     0.3   -8.4    6.0
H     8.4   -2.1   -5.7
H    -0.4    8.6   -5.7
C     8.5   -3.0   -5.1
C     9.2   -3.0    3.8
N     9.0    3.2    4.1
N    -4.1    9.5    0.7
N    -8.5    3.2   -5.1
H     0.4    8.7    5.7
H    -8.9    4.1    3.6
H     8.6    2.4   -5.5
H     9.1    4.1   -3.1
H    -5.6   -3.0    8.3
C     4.3    9.5   -0.8
H    -0.9    9.5   -4.3
C     4.8   -9.3    1.0
C    -4.4    9.5   -0.8
H     5.9    3.2   -8.2
H     5.6   -3.0   -8.4
P    -8.6   -6.2    0.1
N     0.2   -9.3   -5.1
N    -8.7   -3.0    5.3
N     4.6    9.5    0.7
N     1.1    9.5   -4.6
H    -8.5    2.4    6.0
H    -5.4    3.2    8.6
N     8.8   -3.0    5.3
H     0.3  -10.2   -3.1
P    -8.6    6.4    0.1
H     1.3   -9.3   -5.2
C     8.6    3.2    5.5
H    -8.9    2.4   -5.5
C    -9.0   -3.0   -5.1
H    -5.4   -9.3   -0.5
H    -0.2  -10.2    3.6
N     9.0    3.2   -5.1
P     8.9   -6.2    0.1
H    -8.3   -3.9    5.7
H    -3.1   -3.0    9.9
H     3.3    3.2   -9.8
C    -0.2    9.5   -5.1
I   -10.5    0.6    2.7
C    -0.1   -9.3    5.5
H     8.4   -3.9   -5.7
N     0.0    9.5    5.3
H     3.1   -3.0  -10.0
I    -6.1   -5.7   -7.1
C    -8.9    3.2    5.5
P     8.9    6.4    0.1
H    -4.0  -10.2   -0.9
H    -1.2   -9.3    5.6
H    -0.0   10.4    3.4
P     0.1   -6.2   -9.1
H     8.6    4.1   -5.5
H    -9.1   -2.1   -5.7
H    -1.0    9.5    5.4
H    10.0   -2.2   -4.0
H    -9.9    3.2   -3.5
H    -9.7   -3.0   -4.3
I    10.8   -0.3   -2.5
H     9.2   -2.2    5.7
H    -5.5    9.5   -0.9
H     1.8    9.5   -5.3
H    -2.9    3.2   10.2
I    -6.8   -5.7    6.7
H     5.9   -9.3    1.1
N    -4.1   -3.0    9.8
I     3.8   -9.3   -4.6
P     0.1    6.4   -9.1
I     3.8   -9.3    4.6
N    -4.4    3.2   -9.7
N     4.4    3.2   -9.7
H     9.1    2.4    6.0
H     5.7    9.5    0.8
H    -4.0    2.4  -10.1
P     0.1   -6.2    9.3
H    -8.5    4.1    6.0
H     1.3   10.4   -4.0
I    -3.8    9.5   -4.4
I     7.0    5.9   -6.4
H     4.4  -10.2    1.5
H    -4.4  -10.2    1.5
C     4.2   -3.0  -10.0
I    -3.5    9.5    4.8
H    -4.0   10.4   -1.2
H     4.2   10.4    1.2
H    -8.9    4.1   -5.5
N     4.6   -3.0    9.8
P     0.1    6.4    9.3
H    10.0    3.2    4.0
H     4.8  -10.2   -0.9
N     9.9   -3.0   -4.6
I    -2.4    0.6  -11.0
H    10.3   -3.0    3.7
I   -11.2    0.6   -1.9
C    -4.0    3.2   10.1
H     4.2   -2.2   10.3
I     6.4    5.9    7.3
C    -4.5   -3.0  -10.0
H    -4.5   10.4    1.2
H    -4.1   -2.1  -10.4
H    10.0   -3.9   -4.0
H    -4.5   -2.2   10.3
H    -9.1   -3.9   -5.7
H     4.8    2.4  -10.1
H     9.2   -3.9    5.7
H     4.7   10.4   -1.2
I    -4.9   -9.3   -4.6
I    -4.9   -9.3    4.6
H    -9.8   -3.0    5.4
H    -0.2  -10.2   -5.5
I     2.7   -0.4   11.3
H     4.6   -2.1  -10.4
H     9.1    4.1    6.0
I    11.4   -0.4    2.1
H    -5.4    3.2   -9.8
I     5.0    9.5   -4.4
I    -6.1    6.9   -7.1
H    -4.0    4.1  -10.1
I     7.0   -6.7   -6.4
C     4.8    3.2   10.1
H     4.4    2.4   10.6
H    -4.4    2.4   10.6
H    10.0    3.2   -5.2
I    -6.8    6.9    6.7
I     6.4   -6.7    7.3
H     4.2   -3.9   10.3
H     5.7   -3.0    9.9
I     2.0   -0.4  -11.7
H     0.4   10.4    5.7
H     0.3  -10.2    6.0
I     5.2    9.5    4.8
H   -10.0    3.2    5.6
H    -4.1   -3.9  -10.4
H    -5.6   -3.0  -10.0
H    -4.5   -3.9   10.3
H    -0.4   10.4   -5.7
H     4.8    4.1  -10.1
I    -1.7    0.6   11.9
H     4.6   -3.9  -10.4
H   -11.6    3.2    1.1
H    -7.5    8.7   -4.0
H     4.4    4.1   10.6
H    -4.4    4.1   10.6
H     5.9    3.2   10.2
H    10.6   -3.0   -5.3
I    -7.9   -9.3    0.0
H   -11.9   -3.0    0.8
H     4.3   -8.4   -7.8
H    -4.4   -8.4   -7.8
I   -10.5    0.6   -6.4
I   -10.5    5.9    2.7
H    -8.4   -8.4   -3.1
I    -2.4  -12.0   -1.9
H    12.0   -3.0   -0.9
I    -1.7  -12.0    2.7
H    -4.1    8.6    7.9
I    10.8   -5.8   -2.5
H    -3.9   -8.5    8.2
I     8.2   -3.0   -8.9
P     0.1  -12.5    0.1
H     7.6   -9.3   -3.5
P    -8.6    0.1   -9.1
I    -7.9    3.2   -9.2
H    12.1    3.2   -0.5
I    -7.9    3.2    9.2
H    -7.3    9.5    3.7
H     4.2    8.7   -8.1
I     8.2    9.5    0.2
H     0.3    2.4  -12.4
H    -7.5   -9.3    4.0
H     4.6    8.6    7.9
H     8.6   -8.5    3.6
I     2.7   12.2    2.1
I    10.7   -0.4    6.7
P    -8.6    0.1    9.3
I     2.0   12.3   -2.5
