         400
 sphere cut out from bulk 
H     0.2   -1.3   -1.0
H     1.3   -0.1   -1.4
N     1.2   -1.1   -1.1
H     1.6   -1.1   -0.1
I    -1.2    1.1    2.1
I    -2.4   -1.3   -1.6
I     1.2    2.4   -1.6
H    -2.5    1.3   -1.9
C     1.9   -2.0   -2.0
P     1.5    2.9    1.6
I     3.3    0.2    1.6
P    -3.0   -1.6    1.6
H    -1.4    2.4   -2.5
I    -0.2   -3.4    1.7
H     1.5   -1.9   -3.0
H     1.8   -3.0   -1.6
H     3.0   -1.7   -2.0
N    -2.4    2.2   -2.3
H     1.9   -0.7    3.7
H     0.7   -1.9    3.7
H    -2.6    3.4   -0.6
N     1.2   -1.3    4.3
C    -3.1    3.3   -1.5
H    -2.9    2.1   -3.3
H     0.6   -0.7    4.8
H    -2.9    2.9    3.4
H    -4.1    3.1   -1.4
I    -0.3    0.4   -5.4
H    -3.0    4.3   -2.1
P    -2.7   -1.7   -4.8
I    -0.4    5.6    1.7
H    -2.8   -4.7   -2.1
P     1.7    2.8   -4.9
H     4.8    3.1   -1.4
I    -5.7    0.2    1.6
I     4.2   -4.2    1.1
I     2.0    3.0    4.8
C     2.1   -2.1    5.3
I    -3.1   -2.1    4.8
H     2.7   -2.8    4.7
H    -2.4   -5.6   -0.6
H    -2.8    1.5    5.4
H    -1.6    2.8    5.4
N    -3.3    3.2    4.3
H     1.7    5.9   -1.6
I     4.0    4.8    1.1
I    -0.6   -4.1   -4.8
I     4.2    0.8   -4.7
P     6.0   -1.6    1.6
I    -4.8   -4.2    1.1
P     1.6   -6.0    1.6
H    -5.9   -1.7   -2.0
C    -2.9   -5.6   -1.5
C    -2.6    2.6    5.4
H     2.6   -1.4    5.9
H     1.4   -2.7    5.9
I    -4.7    0.8   -4.7
H    -4.3    3.1    4.3
H    -3.2    4.3    4.3
H     6.4    1.3   -1.9
I     1.3   -6.5   -1.6
I    -0.7    4.8   -4.8
I     6.6   -1.3   -1.6
C     5.9    3.3   -1.5
I    -4.9    4.8    1.1
H     4.6    3.1    4.3
I     4.0   -3.8   -4.4
H    -3.0   -4.7    4.3
H    -1.3   -6.5   -2.5
H     6.0    2.1   -3.3
H     6.4    3.4   -0.6
H    -4.0   -5.9   -1.4
N     6.5    2.2   -2.3
C     1.8    6.9   -2.0
H    -7.3   -1.1   -0.1
I    -0.3    0.2    7.4
H     6.0    2.9    3.4
N    -2.3   -6.7   -2.3
H     2.6   -1.3   -6.9
H     1.4   -2.6   -6.9
H    -2.8   -6.1    3.4
C    -7.0   -2.0   -2.0
H     6.0    4.3   -2.1
H    -3.1    3.0    6.3
I    -5.0   -3.8   -4.4
H     0.0    7.6   -1.0
I     3.8    5.1   -4.4
H     1.3    7.0   -3.0
N     5.6    3.2    4.3
H    -7.7   -0.1   -1.4
H    -3.1    3.1   -6.5
N    -3.1   -5.7    4.3
I     5.9   -2.1    4.8
H     5.0   -5.9   -1.4
N    -7.7   -1.1   -1.1
H    -7.1   -3.0   -1.6
I     2.2   -5.9    4.8
H     1.4    7.8   -0.1
H     0.5    7.0    3.7
H     0.6   -0.5   -7.9
N     1.0    7.9   -1.1
H     6.1   -4.7   -2.1
H     2.8    7.2   -2.0
H    -7.1   -0.7    3.7
C     2.1   -2.0   -7.5
H    -2.7   -6.8   -3.3
P     1.9   -6.2   -4.9
I     7.7    1.1    2.1
P     6.3   -1.7   -4.8
H    -2.8    1.6   -7.4
H    -1.6    2.9   -7.4
P    -3.1    7.4    1.6
I    -1.0   -7.8    2.1
P    -7.5    2.9    1.6
H     2.6    6.2    4.7
H    -2.3   -7.7   -1.9
H    -7.4   -1.9   -3.0
I    -2.5    7.7   -1.6
H     6.1    1.5    5.4
H    -6.2   -2.8    4.7
C    -2.6    2.7   -7.4
H     7.5    2.4   -2.5
H    -1.4   -6.2    5.4
I    -7.8    2.4   -1.6
H     5.8    4.3    4.3
H    -4.2   -5.9    4.3
C     6.0   -5.6   -1.5
I    -5.2    5.1   -4.4
P     1.7    2.7    7.9
P    -2.7   -1.9    7.9
H     6.5   -5.6   -0.6
N     1.2   -1.2   -8.5
H     1.2    6.3    5.9
C     6.3    2.6    5.4
H     5.9   -4.7    4.3
H     4.8   -5.9    4.3
C    -2.5   -6.4    5.4
H    -6.3   -1.4    5.9
I    -3.1   -2.0   -8.0
C     1.9    6.9    5.3
N     1.1    7.7    4.3
I     2.0    3.2   -8.0
I    -6.9    3.0    4.8
H    -8.7   -1.3   -1.0
H     2.7   -2.6   -8.1
N    -7.7   -1.3    4.3
C    -6.9   -2.1    5.3
I    -3.3    6.8    4.8
H     1.1    8.9   -1.4
I    -0.6   -4.2    8.0
I     4.2    0.6    8.0
P    -7.2    2.8   -4.9
H     5.9    3.0    6.3
P    -2.8    7.2   -4.8
H    -2.9   -6.0    6.3
H    -2.9   -5.8   -6.5
H     1.7    8.2    3.7
N     5.8   -5.7    4.3
H    -8.2   -1.9    3.7
H     5.9    3.1   -6.5
H     1.4   -9.1   -1.4
H     9.1   -1.3   -1.0
H     1.9   -0.6   -9.1
H     0.7   -1.8   -9.1
I    -0.7    4.7    8.0
H     6.2   -6.1    3.4
I    -4.7    0.6    8.0
H    -6.3   -1.3   -6.9
H     1.2    6.4   -6.9
I     8.7   -3.4    1.7
H    -7.3    5.9   -1.6
H     7.4    2.8    5.4
P     5.8    7.4    1.6
H    -2.7   -7.5    5.4
I     3.4   -8.8    1.6
P    -7.3   -6.0    1.6
H     0.4    8.3    4.8
H    -8.3   -0.7    4.8
H    -6.1    7.2   -2.0
H    -1.4   -6.1   -7.4
N    -3.3    3.4   -8.5
H     6.1    1.6   -7.4
N     6.7   -6.7   -2.3
H     6.2   -6.8   -3.3
I     3.1    9.1    1.6
H     2.5    7.5    5.9
I    -9.2   -3.4    1.7
H    -7.6   -2.7    5.9
C    -2.5   -6.3   -7.4
C     6.3    2.7   -7.4
H    -4.3    3.2   -8.5
H    -6.4    6.2    4.7
H    -3.2    4.4   -8.5
I     5.7    6.8    4.8
I     3.9   -3.9    8.4
H    -3.0   -4.6   -8.5
I     5.9   -2.0   -8.0
I     6.4    7.7   -1.6
I    -0.1   -8.6   -5.4
I    -6.7   -5.9    4.8
H     1.5   -2.1    9.8
I     2.2   -5.8   -8.0
I    -7.6   -6.5   -1.6
H    -2.9    2.0    9.5
C    -7.2    6.9   -2.0
I     8.6    0.4   -5.4
H     4.6    3.2   -8.5
N     1.4  -10.1   -1.1
H     1.8  -10.1   -0.1
N    10.1   -1.1   -1.1
H     6.6   -7.7   -1.9
P     6.3   -1.9    7.9
P     1.9   -6.3    7.9
H    -2.9    3.0   -9.4
H    10.2   -0.1   -1.4
H     0.4  -10.3   -1.0
I     8.6    5.6    1.7
I    -1.4   10.1    2.1
C    -6.9   -2.0   -7.5
H     7.7   -6.5   -2.5
I   -10.1    1.1    2.1
C     1.9    7.0   -7.5
I     4.4   -8.2   -4.7
I    -5.5   -8.8    1.6
H     9.6   -1.9    3.7
I     8.4   -4.1   -4.8
I    10.1    2.4   -1.6
I     3.8    5.0    8.4
I    -4.6   -8.2   -4.7
H    -6.2   -2.6   -8.1
P    -7.0   -6.2   -4.9
H    -7.6   -2.6   -6.9
I    -5.0   -3.9    8.4
H     2.6    6.3   -8.1
H     2.0   -9.7    3.7
I    -2.2  -10.2   -1.6
C     6.5   -6.4    5.4
H     2.5    7.7   -6.9
H    10.5   -1.1   -0.1
H     6.0   -6.0    6.3
H     6.0   -5.8   -6.5
P     6.1    7.2   -4.8
I     8.2    4.8   -4.8
H    -1.4    2.3   10.3
N    -3.1   -5.6   -8.5
I    -9.2    0.4   -5.4
H     9.5   -0.7    4.8
H    -7.6    7.0   -3.0
I    -0.5    9.3   -5.4
N     5.6    3.4   -8.5
H    -2.7   10.3   -1.9
H    -2.7   -7.3   -7.4
H     0.8   -9.6    4.8
H    -7.5    7.8   -0.1
I    -1.2    1.2  -10.7
H     7.4    2.9   -7.4
P    10.4    2.9    1.6
H   -10.4    2.4   -2.5
N    -2.4    2.1   10.5
I    -5.8    9.1    1.6
I    -9.3    5.6    1.7
P    -2.8  -10.5    1.6
H    10.4   -1.9   -3.0
P    -2.8    7.1    7.9
P    -7.2    2.7    7.9
I    -6.9    3.2   -8.0
I    -5.2    5.0    8.4
H    -4.2   -5.8   -8.5
I    -3.3    7.0   -8.0
H     7.5   -6.2    5.4
H     6.3   -7.5    5.4
N    10.2   -1.3    4.3
C    -7.1    6.9    5.3
H     5.8    4.4   -8.5
N    -7.9    7.9   -1.1
C     1.9   -2.1   10.8
N     1.4  -10.3    4.3
C    10.9   -2.0   -2.0
H    -2.5    1.2   10.9
H    10.8   -3.0   -1.6
H     3.2  -10.7   -2.0
H     4.8   -5.8   -8.5
H     5.9   -4.6   -8.5
I     7.9   -7.8    2.1
C     2.1  -11.0   -2.0
H     3.0   -1.9   10.8
I     8.6    0.2    7.4
I    -9.5   -4.1   -4.8
H     1.7  -10.9   -3.0
H    10.8   -0.7    3.7
I    -0.1   -8.7    7.4
I     1.2    2.3   11.2
H     6.0    2.0    9.5
I   -11.3   -1.3   -1.6
N    -7.7   -1.2   -8.5
H     1.3   -0.2   11.4
H    -2.8   -6.0   -9.4
H    -7.1   -0.6   -9.1
H     0.9  -10.9    3.7
H    -8.3   -0.5   -7.9
I     4.0    9.7   -4.7
N     1.1    7.8   -8.5
I     1.0   11.4   -1.6
I    -0.2   -3.3  -11.1
I    -2.4   -1.4   11.2
H    -6.5    7.5    5.9
H    -7.7    6.3    5.9
H     6.0    3.0   -9.4
H    -7.2    8.2    3.7
H    -8.4    7.0    3.7
H     0.4    8.4   -7.9
H     0.5    7.2   -9.1
I     3.3    0.3  -11.1
C     6.5   -6.3   -7.4
P    -3.0   -1.4  -11.2
H   -11.4    1.3   -1.9
P     1.5    3.1  -11.2
N    -2.6   11.2   -2.3
N     5.8   -5.6   -8.5
H    -1.6   11.4   -2.5
H    -8.9    7.6   -1.0
H     1.8   -3.2   11.2
N    -7.9    7.7    4.3
H     9.0    7.6   -1.0
N   -11.4    2.2   -2.3
I    -0.5    9.2    7.4
I    -9.7    4.8   -4.8
H    -7.5   -9.1   -1.4
I    -9.2    0.2    7.4
N     1.2   -1.2   11.7
H    -3.0    4.1   10.7
H     0.2   -1.5   11.8
I    -4.9    9.7   -4.7
H    -7.8    8.9   -1.4
H    -3.1   11.1   -3.3
I    -6.7   -5.8   -8.0
P    -2.5  -10.7   -4.8
H   -11.5    3.4   -0.6
I     5.7    7.0   -8.0
P    10.7    2.8   -4.9
P     1.3   11.9    1.6
H    -6.4    6.3   -8.1
H     1.3    6.9    9.8
H    -2.8   -4.8   10.7
C    -3.1    3.2   11.3
P   -11.9   -1.6    1.6
H    -2.7   -6.9    9.5
H   -10.5    2.8    5.4
H    -3.0   10.5    5.4
H    -6.5    7.7   -6.9
H    -7.7    6.4   -6.9
H     6.3   10.3   -1.9
H    10.3   -2.7    5.9
H     6.3   -7.3   -7.4
H     7.5   -6.1   -7.4
H    11.9   -1.7   -2.0
H    10.6    5.9   -1.6
P    10.6   -6.0    1.6
I    10.3   -6.5   -1.6
H     2.0  -12.0   -1.6
H     2.8  -10.4    5.9
P     6.1    7.1    7.9
P     6.1  -10.5    1.6
H    -5.8  -10.7   -2.0
I    12.2    0.2    1.6
I     8.4   -4.2    8.0
P    -7.0   -6.3    7.9
H    -1.3   -6.6   10.3
I     6.7  -10.2   -1.6
H   -10.2   -6.5   -2.5
I    11.0    3.0    4.8
H     9.5    7.0    3.7
I     4.4   -8.3    8.0
C    11.0   -2.1    5.3
I     8.2    4.7    8.0
H    -7.2  -10.1   -0.1
H    -8.2   -1.8   -9.1
H     0.8   -9.5   -7.9
I    -2.9  -11.1    4.8
H     9.5   -0.5   -7.9
C    -7.0    7.0   -7.5
I    -4.6   -8.3    8.0
H     1.7    8.4   -9.1
I    -0.0  -12.3    1.7
H   -11.8    2.1   -3.3
H    -4.1    2.9   11.4
H    -6.9   -9.7    3.7
C     2.2  -11.1    5.3
I    -0.4    5.7  -11.1
H    -5.9   -1.9   10.8
H    -7.4   -2.1    9.8
N     6.5    2.1   10.5
I    -5.7    0.3  -11.1
C   -12.0    3.3   -1.5
N    -7.6  -10.1   -1.1
H    -2.7   12.3   -0.6
H   -11.9    2.9    3.4
H    10.3   -2.6   -6.9
H     2.8  -10.3   -6.9
H   -11.3   -5.6   -0.6
