         400
 sphere cut out from bulk 
P     0.3   -0.0    0.8
I    -1.0    2.0   -1.3
I    -0.7   -2.2   -1.3
I     2.8    0.2   -1.3
P     0.4    0.0   -3.4
I    -2.1   -0.2    2.9
I     1.4    2.1    2.8
I     1.7   -2.1    2.9
H    -3.3   -3.0   -0.2
H    -3.6   -2.0    2.0
H    -0.3    4.6   -0.1
H    -3.3    2.5   -2.1
H    -4.5   -1.7   -0.2
H    -0.0   -4.5   -2.2
P     0.4   -0.0    5.0
H     0.7    4.5    2.2
C    -4.3   -2.7    0.2
H     4.8   -1.7   -0.2
H     4.1   -2.5    2.0
H     4.4    2.0   -2.1
H     1.4    5.1   -0.1
N    -4.3   -2.7    1.7
C     0.4    5.4    0.3
H     4.3   -3.4   -0.2
N    -4.3    2.7   -2.5
N     0.4    5.4    1.8
C     5.0   -2.7    0.2
H    -4.9    2.0   -2.1
H    -3.9   -3.6    2.0
H    -3.5    1.2    4.6
I    -2.1   -0.2   -5.5
N     5.0   -2.7    1.7
N     0.3   -5.4   -2.5
H    -0.5    5.5    2.1
H     1.3   -4.3    4.1
H    -5.0   -3.4   -0.2
I     1.4    2.2   -5.5
H     1.3   -5.6   -2.2
I     1.7   -2.0   -5.5
H    -5.2   -2.5    2.0
H    -4.0    1.7   -4.3
N     5.0    2.7   -2.5
H    -4.6    3.6   -2.1
H     4.7    3.6   -2.1
H     4.0    2.8    4.0
H     5.7   -2.0    2.0
H     0.1    6.4   -0.1
C    -4.3    2.7   -4.0
H     1.0   -4.7   -4.4
H    -0.3   -6.1   -2.2
H    -3.5    3.4   -4.3
H     1.0    6.1    2.1
H     4.0    3.0   -4.3
I    -6.5    0.2   -1.3
H    -3.7    3.6    4.3
H     6.0   -3.0   -0.2
C     0.3   -5.4   -4.0
H    -0.7   -5.1   -4.4
H     5.4   -3.6    2.0
H     6.0    2.5   -2.1
N    -3.9    1.8    5.3
C     5.0    2.7   -4.0
H    -0.8   -5.3    4.5
H     5.3    1.7   -4.3
H    -3.1    2.1    6.0
N     1.3   -5.2    4.6
I     3.6   -6.0   -1.4
H    -5.3    2.8    4.0
C    -4.5    3.1    4.7
I     4.0    5.9   -1.4
I    -2.9    6.0    2.8
I    -3.3   -5.9    2.8
H     1.4   -6.0    3.9
I    -0.9    2.1    7.0
I    -0.8   -2.1    7.1
C     4.8    3.1    4.7
H    -5.3    3.0   -4.3
H     5.8    1.2    4.6
H    -3.6   -2.0   -6.3
C    -0.1   -5.4    5.2
H    -0.2   -4.6    6.0
I     2.9    0.1    7.0
H    -4.6    1.3    5.9
H     4.7    1.3    5.9
P     0.4   -0.0   -7.6
H     2.0   -5.3    5.3
H     0.7    4.5   -6.3
H     0.5   -6.4   -4.4
N     5.4    1.8    5.3
I     7.2   -0.2    2.9
H     4.1   -2.5   -6.3
H     5.6    3.6    4.3
H     4.3    3.6    5.5
H     5.8    3.4   -4.3
I    -5.3    5.9   -1.4
I    -1.9   -7.9   -1.4
H    -4.0   -3.6   -6.2
H    -5.0    3.6    5.5
N    -4.3   -2.7   -6.6
I    -7.6   -2.1    2.9
I    -5.7   -6.0   -1.4
H    -0.6    5.6   -6.3
H    -5.3   -2.5   -6.3
I    -1.8    8.2   -1.4
H    -0.1   -6.4    5.7
N     0.4    5.4   -6.7
I     8.3    2.0   -1.3
I    -7.9    2.1    2.8
H     5.7   -2.0   -6.3
I    -2.9    6.0   -5.6
N     5.0   -2.7   -6.6
I    -3.3   -5.9   -5.6
H     6.2    2.1    6.0
H     1.0    6.1   -6.3
I     2.6    8.0    2.8
I     6.0   -5.9    2.8
H     5.3   -3.6   -6.2
I     2.5   -8.1    2.8
P    -9.0   -0.0    0.8
I     8.6   -2.2   -1.3
I     7.3   -0.2   -5.5
P    -4.2    8.1    0.7
P     0.4    0.0    9.2
P    -4.4   -8.1    0.7
I     6.4    6.0    2.8
H    -7.9    5.1   -0.1
H    -3.2   -3.1    8.4
P     5.0   -8.1    0.7
I    -6.4    0.1    7.0
H    -0.3    4.7    8.3
P     5.1    8.1    0.7
H    -3.3   -3.1   -8.4
C    -4.3   -2.7   -8.1
H    -4.4   -1.7    8.3
I    -7.6   -2.0   -5.5
P    -8.9    0.0   -3.4
P     9.7   -0.0    0.8
H    -0.4    4.7   -8.5
P    -4.3    8.0   -3.5
H     0.0   -9.8   -0.1
H    -4.5   -1.7   -8.5
C     0.4    5.4   -8.2
H     4.9   -1.7    8.3
H     1.4    5.0    8.3
P    -4.4   -8.1   -3.5
I     3.8   -5.9    6.9
I    -7.9    2.2   -5.5
H    -8.6    4.5    2.2
H     4.8   -1.7   -8.5
C     5.0   -2.7   -8.1
H    -8.0   -4.3    4.1
H     1.4    5.0   -8.5
I     3.9    6.0    7.0
I     2.6    7.9   -5.6
H     4.3   -3.4    8.4
I    -0.8   -2.1   -9.8
I    -0.9    2.1   -9.8
H    -8.0   -5.6   -2.2
C    -4.2   -2.7    8.7
H     4.3   -3.4   -8.5
I     6.0   -5.9   -5.6
P     4.9   -8.1   -3.5
H     9.0    4.6   -0.1
P     5.0    8.0   -3.5
P    -8.9   -0.0    5.0
C     0.4    5.4    8.6
I     2.8    0.0   -9.8
H    -0.2   10.0   -2.2
I     2.5   -8.2   -5.6
H     0.9  -10.0    2.1
P     9.7    0.0   -3.4
P    -4.2    8.0    4.9
H    -5.0   -3.4    8.4
I   -10.0   -2.2   -1.3
I     6.4    6.0   -5.6
C    -8.9    5.4    0.3
P    -4.3   -8.1    4.9
H    -5.0   -3.4   -8.5
C     5.1   -2.7    8.7
H    -7.3   -5.3    5.3
H    -8.3   -4.7   -4.4
H     0.2    6.4    8.3
H    -8.3    6.1    2.1
N    -8.9    5.4    1.8
H     9.3   -4.5   -2.2
H    -9.3   -4.5   -2.2
H     8.8    5.5    2.1
I   -10.3    2.0   -1.3
N    -8.1   -5.2    4.6
H    -7.9   -6.0    3.9
H     0.2    6.4   -8.5
H    -9.6    4.6   -0.1
I    -5.5   -5.9    6.9
I    -5.4    6.0    7.0
H     0.6    9.7   -4.4
P     5.2    8.0    4.9
P     5.0   -8.1    4.9
C     0.3  -10.8    0.3
H     6.1   -3.1    8.4
I    -6.7    8.0    2.8
N    -9.0   -5.4   -2.5
H    -0.7  -10.6    2.1
H     6.0   -3.1   -8.4
I     3.7   10.1   -1.4
H     1.4   10.5   -2.2
I    -1.8    8.1    7.0
I     7.4   -7.9   -1.4
I    -1.9   -8.1    7.0
I    -3.0  -10.1    2.8
N     0.3  -10.7    1.8
H     8.6   -5.1   -4.4
H     1.6   10.1    3.9
P     9.8   -0.0    5.0
H     8.5   -5.3    4.5
I    -6.8   -8.1    2.8
N     0.4   10.7   -2.5
I     3.9  -10.2   -1.4
H     1.3  -11.0   -0.1
H     9.0   -6.1   -2.2
I    -3.2   10.3    2.8
C     9.7    5.4    0.3
H    -9.2    6.4   -0.1
I     8.4    2.1    7.0
H    10.1    4.5    2.2
I     7.5    8.2   -1.4
N     9.7    5.4    1.8
C    -9.0   -5.4   -4.0
H     0.0    9.7    5.7
I     8.6   -2.1    7.1
N     9.6   -5.4   -2.5
H    -3.6   -2.0   10.5
I    10.8    2.1    2.8
N    -4.2   -2.7   10.2
H     9.4    6.4   -0.1
H     0.7    4.5   10.5
I    -2.0   -0.2   11.3
C     0.4   10.7   -4.0
N     0.4    5.4   10.1
H    -3.2    2.1  -10.8
H    -0.4  -11.5   -0.1
H    -9.9    5.5    2.1
H    -8.6    4.5   -6.3
H     4.1   -2.5   10.5
I     1.5    2.2   11.3
I     1.8   -2.0   11.3
I    11.0   -2.1    2.9
I    -5.6   10.1   -1.4
H    -9.6   -6.1   -2.2
I    -5.4  -10.2   -1.4
N     5.1   -2.7   10.2
H    -0.7   10.8    4.5
H    -8.8   -6.4   -4.4
C     9.6   -5.4   -4.0
I    -6.7    7.9   -5.6
I    -6.5    0.0   -9.8
P    -8.9   -0.0   -7.6
I   -11.4   -0.2    2.9
H    -0.2   -4.6  -10.8
P     0.4   -0.0  -11.8
H    -3.9   -3.6   10.6
H     0.1   11.7   -2.2
H     9.1   -4.6    6.0
H     0.9  -10.0   -6.3
H    10.7    5.1   -0.1
H     0.6  -11.7    2.2
H    -0.6   11.0   -4.4
N     1.4   10.9    4.6
H    -0.5    5.6   10.5
C     9.2   -5.4    5.2
I    -3.0  -10.1   -5.6
C     0.0   10.7    5.2
P    -4.3    8.0   -7.7
H     4.6    1.3  -10.9
H    -4.7    1.3  -10.9
P    -4.4   -8.1   -7.7
H    -5.2   -2.5   10.5
C    -9.4   -5.4    5.2
I    -6.8   -8.2   -5.6
H   -10.0   -5.1   -4.4
I    -3.2   10.2   -5.6
H    -8.3    6.1   -6.3
I     3.8    6.0   -9.8
I     3.7   -5.9   -9.9
H     8.7    5.6   -6.3
H    -9.5   -4.6    6.0
H    10.6   -5.6   -2.2
H     5.7   -2.0   10.5
I    12.1    0.2   -1.3
H    10.3   -4.7   -4.4
H    10.6   -4.3    4.1
P     4.9   -8.1   -7.7
H     1.1    6.1   10.5
I     6.3  -10.1    2.8
P     5.0    8.0   -7.7
H    10.4    6.1    2.1
I    10.7    2.2   -5.5
H     2.1   10.9    5.3
I     6.1   10.3    2.8
N    -4.0    1.8  -11.5
H     1.1   11.4   -4.4
H   -10.2   -5.3    4.5
H    -0.7  -10.5   -6.3
P     9.7   -0.0   -7.6
N    -8.9    5.4   -6.7
H     5.4   -3.6   10.6
I   -10.1   -2.1    7.1
H    -7.9    5.0    8.3
I    11.1   -2.0   -5.5
H     9.8   -6.4   -4.4
I   -10.2    2.1    7.0
H     1.4   11.8    4.1
H     9.2   -6.4    5.7
H     4.3    3.6  -11.3
H     6.1    2.1  -10.8
H    10.0    4.5   -6.3
I   -11.4   -0.2   -5.5
N    10.6   -5.2    4.6
N     0.3  -10.7   -6.7
H    -7.9    5.0   -8.5
H    -9.4   -6.4    5.7
I    -5.5    6.0   -9.8
P    -8.9    0.0    9.2
H     0.1   -9.7    8.3
C    -0.1   -5.4  -11.6
I    -1.9    8.0   -9.8
H    -3.6    1.2  -12.2
N     5.3    1.8  -11.5
H     2.0   -5.3  -11.5
I    -5.6   -5.9   -9.9
H    -0.1   -6.4  -11.1
I    -2.0   -8.1   -9.8
H    -5.0    3.6  -11.3
P    -4.2    8.0    9.1
I     3.8  -10.1    7.0
I     3.9   10.2    6.9
P    -4.4   -8.1    9.1
H    10.8   -6.0    3.9
N     9.7    5.4   -6.7
H     0.1   -9.7   -8.5
H   -12.6   -3.0   -0.2
H    -0.1   11.5    6.0
H    -9.9    5.6   -6.3
I     7.4   -8.1    7.0
I     8.4    2.1   -9.8
I     7.5    8.1    7.0
H   -12.7    2.5   -2.1
H     9.0    4.7    8.3
I    -2.9    6.0   11.3
I    -3.3   -5.9   11.2
I     8.5   -2.1   -9.8
I     6.3  -10.1   -5.6
P     5.0   -8.1    9.1
I     6.1   10.2   -5.6
P     5.1    8.0    9.1
H     8.9    4.7   -8.5
H    -4.0    1.7   12.5
H    -8.4  -10.0    2.1
H   -12.9   -2.0    2.0
C    -8.9    5.4   -8.2
H    -3.8   12.5    2.0
C    -4.6    3.0  -12.1
H     0.6  -11.7   -6.3
H     1.1   -4.7   12.4
H    -7.8   10.1    3.9
C     4.7    3.0  -12.1
P     0.4    0.0   13.4
N     1.2   -5.2  -12.2
H    -7.9   10.5   -2.2
P     9.7    0.0    9.2
H    -3.5    3.4   12.5
I     7.3   -0.2   11.3
H     4.4   12.7   -0.2
H    -0.7   -5.1   12.4
H     4.1    3.0   12.5
I    -5.4   10.2    6.9
H    -0.9   -5.3  -12.3
H    -9.3   -9.8   -0.1
H     4.6  -12.5   -2.1
H     9.3   -9.8   -0.1
H    -3.2   13.1   -0.2
C    -8.9    5.4    8.6
C     0.3  -10.7   -8.2
I    -5.6  -10.1    7.0
H     1.3   -4.3  -12.8
H    -4.7  -12.5   -2.1
H    10.3    6.1   -6.3
H    11.3   -5.3    5.3
H     5.7    1.2  -12.2
H    -9.7    4.7    8.3
H    -3.8    3.6  -12.6
H    -8.0  -11.0   -0.1
H    -4.9   12.7   -0.2
H     5.3    1.7   12.5
H     9.1   10.0   -2.2
H   -12.8    1.2    4.6
I    -7.5   -2.0   11.3
H     4.0    2.7  -12.8
H    -9.7    4.7   -8.5
H    -3.8  -12.5    4.3
H    -8.7    9.7   -4.4
