         400
 sphere cut out from bulk 
H     0.5   -0.1   -0.8
N    -0.3    0.5   -0.9
H    -1.2    0.0   -0.7
H    -0.0    1.4    1.0
C    -0.2    1.7   -0.1
H    -0.4    0.8   -1.9
H     0.7    2.3   -0.4
H    -1.1    2.3   -0.2
H    -1.3   -2.7    0.4
I     2.6   -1.5   -0.4
H     1.1   -3.3    0.3
I    -3.4   -0.7    0.1
I     1.5    0.6    3.4
C    -0.9   -3.7    0.1
H    -0.9   -3.8   -1.0
N     0.4   -4.0    0.7
H     0.4   -4.0    1.7
I    -0.6    1.5   -4.3
I     3.6    3.0    0.2
H     2.2    2.3   -3.4
P     4.3    0.3    1.9
H    -1.6   -4.5    0.5
H    -0.6    4.0    2.8
H     0.7   -4.9    0.4
I    -2.1   -2.9   -3.7
H     0.9    2.8    4.3
I    -2.0    4.9    0.3
H     3.3    3.9   -2.0
H    -1.5    3.4    4.2
I    -0.0   -3.9    4.1
C     3.1    2.8   -3.8
C    -0.8    4.1    3.8
H     4.0    2.2   -3.6
N     0.5    3.8    4.5
P    -5.0   -2.5   -2.1
I    -4.2    2.5    3.5
N     3.2    4.1   -3.1
P     5.1   -2.5   -2.1
P     1.6   -1.6    5.7
P    -5.8    0.3    1.9
H     2.4    4.7   -3.2
H     1.3    4.5    4.2
P    -2.4   -0.6   -6.0
I     4.5   -2.1    4.2
H     3.0    3.0   -4.9
H    -2.7   -5.0    3.1
I     4.8   -0.3   -4.5
H    -1.1    5.1    4.1
I     6.7   -0.7    0.1
I    -4.3   -5.2   -0.4
H     0.4    3.8    5.6
H     0.0   -6.1   -3.0
H    -1.5   -5.1   -4.5
I    -5.3   -0.3   -4.5
H     4.1    4.6   -3.4
H     0.9   -5.5   -4.5
I     3.6   -4.8   -3.8
I     0.3    6.1   -3.7
I    -6.6    3.0    0.2
I     1.3   -7.1   -0.5
P    -4.8    5.2    1.8
H     3.4    0.3   -6.5
H    -4.3   -5.4    2.4
I    -5.7   -2.1    4.2
I     6.0    2.5    3.5
C    -3.6   -5.6    3.2
P    -1.4    4.2   -6.0
C     0.2   -6.2   -4.1
H    -6.2    2.2   -3.6
I    -0.8   -0.6    7.5
P     5.3    5.2    1.8
H     2.0   -0.1   -7.4
P    -2.2    7.1   -1.9
I    -7.5   -1.5   -0.4
I     2.8    6.2    3.6
N    -1.2   -6.0   -4.7
I    -3.8    5.3   -4.2
H    -4.6   -4.4    4.4
H     2.5    1.5   -7.3
I     5.8   -5.2   -0.4
H    -3.2    1.3    7.0
N     2.8    0.5   -7.3
I     0.2   -1.7   -7.7
H    -4.2    2.6    6.3
H    -3.3   -6.7    3.2
H    -6.8    3.9   -2.0
N    -4.3   -5.4    4.5
H    -2.7    3.0    7.2
H    -1.9   -6.7   -4.4
C    -3.5    2.3    7.1
H    -6.0    4.6   -3.4
H     5.5   -4.4    4.4
H     5.9   -5.4    2.4
H    -4.3   -2.5    6.7
H     0.5   -7.2   -4.3
H    -1.1   -6.1   -5.8
H     0.4    7.9    3.2
I    -2.9    2.0   -7.7
C    -7.1    2.8   -3.8
H    -3.7   -5.6    5.3
I     1.5    3.8   -7.5
I     3.2    0.2    8.0
N    -6.9    4.1   -3.1
H     2.5   -3.4   -7.5
H     3.9   -4.8   -6.2
I    -3.3    7.0    4.2
H    -2.4   -2.3    8.2
P     4.3   -7.5   -1.9
P     0.7   -6.6    5.9
I     0.0    3.9    8.0
I     2.3   -4.3    7.5
H    -8.0    2.3   -3.4
I     5.0    7.4   -0.5
I    -6.6   -4.8   -3.8
H     9.0    0.0   -0.7
H     5.0   -6.0    4.5
I    -5.1    7.4   -0.5
H     6.0    2.6    6.3
H    -5.1   -6.0    4.5
N     5.8   -5.4    4.5
I    -0.9   -8.3    3.6
H    -7.1    3.0   -4.9
I     3.1   -7.5    4.2
H     1.9    7.8   -4.4
C     6.6   -5.6    3.2
H     5.8   -2.5    6.7
I     8.0   -2.9   -3.7
I     6.4    5.3   -4.2
H     1.9   -5.1   -7.5
C     3.6    0.4   -8.6
H     8.9   -2.7    0.4
C    -4.4   -2.5    7.8
H    -6.8    0.3   -6.5
I    -8.7    0.6    3.4
H     9.1    2.3   -0.2
I    -0.6    9.4   -0.4
I    -3.8   -2.5   -8.2
C     2.7   -4.4   -7.9
H    -0.6    9.1    2.4
C     0.1    8.9    3.2
N    -3.2   -2.9    8.4
H     7.4   -5.0    3.1
H    -4.7   -1.5    8.1
H    -2.9   -3.9    8.2
H     4.2    7.3   -4.3
I     8.2    4.9    0.3
H     4.0   -0.6   -8.6
N     4.0   -4.9   -7.2
H    -9.0   -3.3    0.3
H    -7.7    4.7   -3.2
H     8.5   -4.5    0.5
H    -9.6   -0.1   -0.8
H     4.5    1.1   -8.5
H     3.8    8.4   -3.0
P     1.6   -9.4    1.8
H    -9.4    2.3   -0.4
P    -5.9   -7.5   -1.9
N    -4.3    2.5    8.4
H    -1.4    8.6    4.5
P     0.6    1.3    9.7
P     7.8   -0.6   -6.0
H     4.7   -4.2   -7.5
I    -2.3   -6.1    7.4
H     5.0    1.8    8.3
I    -3.4   -8.5   -3.7
H     3.0    0.7   -9.4
N     9.8    0.5   -0.9
H     5.5   -1.5    8.1
C     9.2   -3.7    0.1
H    -5.2    1.8    8.3
H     7.0    1.3    7.0
H     9.7    0.8   -1.9
C     5.7   -2.5    7.8
C     6.6    2.3    7.1
H     6.4   -5.6    5.3
H     4.9   -3.2    8.1
H    -6.2   -4.8   -6.2
C     3.9    8.3   -4.1
N     2.6    8.5   -4.7
H     9.3   -3.8   -1.0
H     1.0    9.6    3.1
H     6.9   -6.7    3.2
C    10.0    1.7   -0.1
H    -5.4   -4.2   -7.5
H     8.6    3.4    4.2
H    -5.2   -3.2    8.1
H    -3.8    2.2    9.2
N    -0.6    9.2    4.5
H    -4.7    3.5    8.4
H    10.1    1.4    1.0
I    -7.3    6.2    3.6
H    -5.7    1.1   -8.5
I    -0.7   -6.2   -8.2
H     2.1   10.1    0.5
H   -10.2    1.4    1.0
H    -5.9    7.3   -4.3
N    -7.3    0.5   -7.3
P    -8.5   -1.6    5.7
H     2.8   -4.5   -8.9
H    -1.3   -9.8   -3.2
H     4.2   -5.8   -7.5
H     0.0    9.0    5.3
H    -3.3   -2.9    9.5
C   -10.3    1.7   -0.1
N     5.8    2.5    8.4
N   -10.5    0.5   -0.9
I     2.7   -9.3   -4.2
H     0.4  -10.0   -3.4
I     9.5    1.5   -4.3
N    -9.7   -4.0    0.7
H     2.6    8.5   -5.8
H     4.4    9.6    0.4
H     5.5    3.5    8.4
H    -2.6    1.9  -10.1
I    -7.0    0.2    8.0
H    -9.3    2.8    4.3
H    -9.4   -4.9    0.4
I     6.9    7.0    4.2
H    -6.2   -0.6   -8.6
I     4.5   -9.7    0.3
I     6.3   -2.5   -8.2
I    -1.6    6.5   -8.3
N    -6.2   -4.9   -7.2
H    -7.7    1.5   -7.3
H    -9.8   -4.0    1.7
P    -1.4   -3.6  -10.0
H     2.2    9.5   -4.5
H    10.7   -0.1   -0.8
H     9.6    4.0    2.8
I     7.2    2.0   -7.7
H   -10.6    0.8   -1.9
C    -6.5    0.4   -8.6
H     7.5    3.0    7.2
P     8.0    7.1   -1.9
H    -8.9    4.5    4.2
H    -0.4  -10.6   -2.0
P     4.4    8.0    5.9
I    -2.9    9.7   -3.8
N    -0.5  -10.4   -3.1
H     1.9   -4.2    9.9
C     9.4    4.1    3.8
I     4.5    5.7    8.2
H     8.6   -5.1   -4.5
H    -8.2   -0.1   -7.4
H    -6.4    8.4   -3.0
I    -7.0   -7.5    4.2
H     4.6    9.1   -4.5
H    10.9    2.3   -0.4
H    -0.9   10.2    4.4
C     2.8   10.8    0.1
H    -5.7    9.6    0.4
H     2.8   10.8   -1.0
H    -5.9   -5.8   -7.5
C    -6.3    8.3   -4.1
H    -2.4  -10.1    4.2
H     9.1    5.1    4.1
I    -5.7   -9.7    0.3
H    -7.7   -3.4   -7.5
N    -9.6    3.8    4.5
N    10.6   -4.0    0.7
I     1.4    8.4    7.4
N     7.0   -2.9    8.4
H    -4.8   -9.4    4.1
N     4.1   10.6    0.7
H   -11.3    0.0   -0.7
H    10.5   -4.0    1.7
I    -8.8   -7.1   -0.5
H     6.4    2.2    9.2
P     8.8    4.2   -6.0
H   -11.2    2.3   -0.2
I    -5.6    5.7    8.2
H     7.7   -2.3    8.2
H     4.1   10.6    1.7
P    -5.8    8.0    5.9
I     6.8   -8.5   -3.7
I    -2.3    1.6   11.1
H     8.3   -6.7   -4.4
H    -5.6    9.1   -4.5
N    -2.5    1.9  -11.1
I    -0.1  -11.6    0.2
P     1.6    6.1    9.7
H     7.2   -3.9    8.2
I    10.1   -3.9    4.1
P     1.4    6.0   -9.8
H     5.4   -9.4    4.1
H    -2.1    0.9  -11.4
I   -10.2   -3.9    4.1
H    -9.3   -5.5   -4.5
H   -11.0   -3.8   -1.0
I   -10.8    1.5   -4.3
C   -11.1   -3.7    0.1
C    -7.4   -4.4   -7.9
I    -7.9   -4.3    7.5
H     1.5   -3.1   11.2
H    -4.3  -10.5    2.8
H    -2.2    8.7   -7.5
H    11.3   -3.3    0.3
H   -11.4   -2.7    0.4
H   -10.7    4.0    2.8
H    -2.5    9.7   -6.2
N     9.0   -6.0   -4.7
H    -1.7    2.5  -11.4
H    -7.2    0.7   -9.4
N     1.8   -4.1   11.0
H    -9.7    3.8    5.6
I     9.3   -0.6    7.5
H    10.9   -4.9    0.4
I     3.7   10.7    4.1
C    -4.5  -10.5    3.8
I     3.0    8.3   -8.2
I     0.8   -8.8    8.2
I     0.9   -0.9   12.0
I    -8.6    3.8   -7.5
H     6.9   -2.9    9.5
H     2.4   11.8    0.4
N    -3.2  -10.8    4.5
I    11.6    0.6    3.4
H    11.0    2.8    4.3
I    -9.8    6.1   -3.7
I     2.4    3.5   11.4
N    -6.0   10.6    0.7
H   -10.1   -6.1   -3.0
N    10.7    3.8    4.5
H    -8.3    7.8   -4.4
H     4.8   11.3    0.3
C   -10.9    4.1    3.8
H    -8.2   -5.1   -7.5
H    10.2   -6.1   -3.0
P    -1.3   12.0   -2.1
H     1.1   -4.8   11.3
I     1.5   -4.1  -11.5
C    -0.6  -11.7   -3.8
H    -6.1   10.6    1.7
I     1.6   11.7   -3.7
N    -2.5    9.7   -7.2
N    -7.6    8.5   -4.7
H     9.1   -6.1   -5.8
H     3.8   -3.5   11.2
H     5.9  -10.5    2.8
I    -1.5   -1.3  -12.2
I     7.9   -6.1    7.4
H    -7.3   -4.5   -8.9
H    -4.5    1.4  -11.5
C   -10.0   -6.2   -4.1
H    -5.3   11.3    0.3
C     5.7  -10.5    3.8
H    -3.3  -10.7    5.6
H    -0.7  -11.5   -4.9
I     3.0    0.5  -12.1
I     4.9   -8.0   -8.3
H    10.6    3.8    5.6
C    -3.8    2.2  -11.8
H    -4.1    5.0   10.8
H   -11.8   -4.5    0.5
H    -3.0  -12.3   -0.4
I    -7.5   -9.3   -4.2
I    10.5    6.1   -3.7
H    -4.1    3.2  -11.6
I    -5.3   -8.0   -8.3
H    -7.5    8.5   -5.8
I    -3.6   -2.9   11.9
I   -10.0   -1.7   -7.7
C    10.3   -6.2   -4.1
I     7.3    9.7   -3.8
C     3.2   -4.3   11.6
H     7.6    1.9  -10.1
H    -1.5  -12.2   -3.4
I     2.3  -12.1    3.5
H    -9.6   -7.2   -4.3
H    -2.8  -11.7    4.3
I    -0.2    4.3  -12.1
P    -8.5   -9.4    1.8
H     0.3  -12.3   -3.6
H   -11.7    3.4    4.2
I    12.8   -1.5   -0.4
H     5.7    1.4  -11.5
H    -9.7    7.9    3.2
H    -4.5    9.4   -7.5
H    -8.1   10.1    0.5
H    -1.7   10.4   -7.5
H    -3.0    7.1  -10.4
H     4.9  -11.2    4.2
P    -9.5   -6.6    5.9
H    11.4    4.5    4.2
H   -11.2    5.1    4.1
I    10.3   -1.7   -7.7
P    -5.1  -10.4   -6.0
H     3.5   -5.3   11.3
I     9.3   -8.3    3.6
P    -2.1   -8.4    9.7
P     5.1  -10.4   -6.0
H     8.7    8.6    4.5
H    -5.2  -11.2    4.2
H    12.3    2.3   -3.4
H    -7.3   10.8   -1.0
H    11.0   -5.5   -4.5
I   -12.1    4.9    0.3
C    -7.4   10.8    0.1
I    -6.5   10.7    4.1
H     2.5   -6.3  -11.2
