         400
 sphere cut out from bulk 
P     0.5    0.8   -1.7
H    -0.3   -1.4    1.9
I     2.2   -0.8    0.5
I    -1.5    1.8    0.5
H    -2.1   -1.1    1.8
C    -1.3   -1.7    2.2
I    -1.2   -1.7   -2.4
H     1.6    2.4    1.6
H    -1.4   -2.8    1.9
C     1.8    2.4    2.7
H     0.8    2.2    3.3
H     2.5    1.6    3.0
H     1.3   -3.6   -1.6
H    -4.0    0.1   -1.6
N    -1.5   -1.6    3.7
H    -1.4   -0.6    4.0
I     2.4    3.5   -1.1
H     4.6    0.2   -0.9
H     3.0   -3.2   -1.9
I     2.7    0.0   -3.9
I    -1.0    2.6   -3.9
H    -0.7   -2.2    4.2
H    -4.0    1.9   -1.8
H    -1.5    4.5   -0.9
C     2.3   -4.0   -1.9
C    -4.6    0.9   -1.9
H     4.6    1.9   -1.1
H    -2.4   -2.0    4.0
H     0.1    5.0   -1.1
H    -1.2   -1.5   -4.9
N     2.3    3.7    3.1
I    -4.7   -2.6    0.5
P     4.2   -1.7    2.9
N     5.2    1.1   -0.9
I    -1.0   -5.3    0.5
H     2.8   -4.7    0.0
P    -3.1    3.5    2.9
N    -0.8    5.3   -0.9
H    -5.4    1.2    0.1
P    -3.1   -4.3   -1.7
I     2.1   -0.9    5.0
H     1.6    4.4    2.9
I    -1.5    1.7    5.0
H     3.2    3.9    2.6
H     5.6    1.2    0.1
H    -0.8    5.7    0.0
H     2.3   -4.4   -2.9
N     2.8   -5.0   -0.9
H    -5.0    0.8   -2.9
N    -5.7    1.1   -0.9
H     1.2    3.2   -5.0
H     2.5    3.7    4.1
I     3.0   -4.7    2.7
I    -5.4    1.3    2.7
N    -1.3   -1.5   -5.9
I     5.5    1.3    2.7
H     2.1   -5.8   -0.9
I    -0.6    5.6    2.7
H     2.9    3.0   -4.8
H    -6.3    0.2   -0.9
H    -2.1   -0.7   -6.1
H    -0.5   -1.3   -6.4
H     5.9    0.8   -2.9
H     3.7   -5.4   -1.1
C     6.3    0.9   -1.9
H    -6.3    1.9   -1.1
H    -1.3    5.9   -2.9
N     2.2    3.5   -5.3
C    -1.3    6.4   -1.9
I     6.3   -2.6    0.5
I    -4.6    5.0    0.5
H    -2.8   -3.0   -5.7
H     2.2    4.5   -5.0
H    -1.2   -3.6   -6.0
H     6.9    0.1   -1.6
C    -1.9   -2.8   -6.3
H    -2.3    6.7   -1.6
I    -0.9   -5.2    5.1
I    -4.6   -2.6    5.1
H     6.9    1.9   -1.8
I    -5.2   -3.5   -4.0
I    -1.6   -6.0   -4.0
P     0.6    0.9    7.3
H    -0.6    7.2   -1.9
P     0.5   -6.9    2.9
P    -6.7   -1.7    2.9
I     1.8   -3.9   -6.3
P     4.1   -1.7   -6.1
P     4.3    6.1   -1.7
I    -4.3    0.5   -6.3
P    -3.1    3.4   -6.2
I     5.7   -3.5   -4.0
H     2.2    2.4   -7.1
I    -5.2    4.3   -4.0
I     2.4    3.4    6.6
H     2.3   -4.4    6.1
H    -4.9    0.7    6.1
C     2.3    3.5   -6.8
H    -4.1   -6.5    2.6
I     6.4    5.0    0.5
H    -2.1   -2.8   -7.4
I     5.7    4.3   -4.0
I     2.7    7.7    0.5
I    -1.3   -1.7    7.9
I     2.1    6.9   -4.0
H     5.2   -5.9    2.9
H     1.5    4.1   -7.2
I     6.3   -2.6    5.1
H    -4.2    2.0    7.1
H     3.3   -3.3    7.2
I    -5.0   -6.9   -1.1
I    -4.5    5.2    5.1
H     6.0    0.7    6.1
H     0.9   -3.3    7.9
H    -3.5   -0.2    7.9
H    -1.3    6.0    6.1
H     3.3    3.8   -7.1
H    -0.4   -8.5   -1.8
H    -5.7   -5.9    2.9
H    -7.9   -3.2   -1.9
C    -4.9    1.2    7.1
C     2.7   -4.2    7.1
I    -8.7   -0.8    0.5
I     2.1   -8.5    0.5
N    -5.0   -6.7    3.1
I    -1.0    2.6   -8.5
I     2.7   -0.1   -8.5
H    -2.8   -8.5   -1.1
H    -7.7    3.9    2.6
P     7.8    3.5    2.9
H     5.0    1.5    7.4
P    -3.1   -4.4    7.3
H     8.8   -1.1    1.8
H    -8.4    1.6    3.0
H    -7.2   -5.4   -1.1
I     2.6   -7.8   -3.9
P     0.6    8.6    2.9
H    -0.3    5.3    7.4
P     7.9   -4.3   -1.7
I    -8.2    0.0   -3.9
I     6.6    0.5   -6.3
I    -1.8    6.4   -6.3
P    -6.7    6.1   -1.7
I     6.0   -6.9   -1.1
H    -4.8   -6.7    4.1
H    -5.1   -5.8   -5.0
N     1.6   -4.1    8.1
N    -4.5    0.1    8.1
P     0.5   -6.9   -6.2
I    -8.6    3.5   -1.1
H    -5.0    7.6    1.9
P    -6.8   -1.7   -6.1
H    -1.8   -9.2    0.1
C     6.0    1.2    7.1
H    -8.2   -4.7    0.0
N     5.9   -6.7    3.1
C    -0.9    6.1    7.1
N    -2.1   -9.3   -0.9
H     1.0   -5.0    8.1
H    -5.9    1.5    7.4
H     3.3   -5.1    7.4
H    -5.1   -0.7    8.1
I     9.4    1.8    0.5
H     8.5   -2.0    4.0
H     5.8   -5.8   -5.0
C    -1.0   -9.4   -1.9
I    -8.0   -4.7    2.7
N    -8.2   -5.0   -0.9
I     2.7    7.7    5.1
H     5.2   -8.0    1.6
I    -1.8   -9.1    2.7
I    -1.4    9.6    0.5
C    -8.6   -4.0   -1.9
I     6.4    5.2    5.1
H     6.8   -6.5    2.6
H    -9.3    2.4    1.6
H     5.9    7.6    1.9
H     4.4   -8.1    3.3
C    -9.2    2.4    2.7
H    -8.0    3.0   -4.8
N    -8.6    3.7    3.1
H    -4.4   -7.4   -4.8
I     2.7   -0.1    9.5
I    -1.0    2.6    9.5
H     6.1   -6.7    4.1
H     1.9   -4.0   -8.9
H     5.8   -0.7    8.1
H     4.8   -7.2   -5.0
H    -5.8   -8.0    1.6
C     5.4   -8.0    2.7
H    -3.9    9.0    1.9
C     9.6   -1.7    2.2
H     6.7    2.0    7.1
H    -4.5    0.5   -9.0
H    -0.3    7.0    7.2
N    -5.2   -6.8   -5.3
H    -8.4    3.7    4.1
H     9.5   -2.8    1.9
H    -1.4   -9.5   -2.9
H    -2.6    5.4    8.1
C    -5.6   -8.0    2.7
H     1.9   -4.0    9.1
H    -4.5    0.5    9.1
H    -8.6   -4.4   -2.9
I     9.7   -1.7   -2.4
H    -4.3    8.1    4.2
I    -4.8    8.6   -2.4
C    -4.9    8.6    2.2
I     2.1   -8.6    5.0
I    -8.9   -0.9    5.0
H    -4.8    6.8   -6.0
N     9.5   -1.6    3.7
I    -1.3   -1.7  -10.1
P     4.2    6.0    7.3
H     8.1   -3.0   -5.7
N     6.4    0.1    8.1
N     5.8   -6.8   -5.3
H     4.5    7.4   -5.7
H     9.5   -0.6    4.0
H    -0.4  -10.3   -1.6
H    -9.6   -3.6   -1.6
H    -4.0   -6.5   -7.1
H    -4.8   -8.8    3.0
N    -2.0    6.2    8.1
I    -5.2   -3.3   -8.5
H     9.4    4.5   -0.9
H     4.9    8.4    4.0
I    -1.5   -6.0   -8.5
H    -2.7  -10.1   -0.9
P     7.8    3.4   -6.2
P     4.1   -9.6   -1.7
P   -10.4    0.8   -1.7
P     0.6    8.6   -6.1
H    -8.8   -5.8   -0.9
H     1.0   10.5   -0.9
H    -6.1   -7.2   -5.0
H     0.9   -3.3  -10.1
H    -9.3    4.4    2.9
P     0.6    0.9  -10.7
N    -5.1    8.7    3.7
C     6.0    8.6    2.2
I    -4.9   -6.9    6.6
H    -3.6   -0.2  -10.1
H     5.2    9.2    1.8
I     5.7   -3.3   -8.5
H     8.9   -0.7   -6.1
H     7.4   -0.2    7.9
I     6.1    8.6   -2.4
I     9.4    1.7    5.0
N     1.5   -4.1   -9.9
H   -10.1    2.2    3.3
N    -8.8    3.5   -5.3
I    -1.5    9.5    5.0
I    -5.1    4.4   -8.5
H    10.6   -1.4    1.9
H     5.1   -6.3   -7.2
C    -5.0   -6.9   -6.8
H    -6.5   -8.1    3.3
H    -2.7    7.0    7.9
N    -4.5    0.1   -9.9
H     6.5   -7.4   -4.8
H     6.1    6.8   -6.0
I     9.9    2.6   -3.9
H    -8.7    4.5   -5.0
H    -0.6   -8.3    7.1
H    -5.7    9.2    1.8
H    -7.7   -3.3    7.2
H     9.8   -1.5   -4.9
H     6.4    0.5   -9.0
H    -6.0    8.4    4.0
H     8.7    6.7   -1.6
H    -7.6    3.8   -7.1
H     6.1   -8.8    3.0
H     3.4   10.4   -1.6
H    -1.7    6.4   -8.9
H     0.9   -5.0   -9.9
I    -0.9   10.4   -3.9
H     6.5    0.5    9.1
N     5.9    8.7    3.7
H    -4.8    8.9   -4.9
I     2.1    7.0   -8.5
H    -2.1   -2.8   10.6
H    -5.8   -6.3   -7.2
C     5.4    7.5   -6.3
H    -1.7    6.4    9.1
H    10.2   -2.2    4.2
H    -5.2   -0.7   -9.9
I     5.9    4.4   -8.5
C    -5.5    7.5   -6.3
H     6.6    8.1    4.2
I    -8.5    3.4    6.6
I    -1.4   -6.0    9.5
I    10.0   -5.3    0.5
I     6.0   -6.9    6.6
I    -8.3    7.7    0.5
I    -5.1   -3.3    9.5
C     5.9   -6.9   -6.8
C     9.0   -2.8   -6.3
N     9.6   -1.5   -5.9
H    -6.4    7.4   -5.7
H    -9.7    3.2   -5.0
H     2.3    2.4   10.9
N    10.1    5.3   -0.9
H    -1.3   -9.6    6.1
H     5.7   -0.7   -9.9
H    -8.7   -4.4    6.1
H    -8.7    2.4   -7.1
C    -8.6    3.5   -6.8
H   -11.3   -1.4    1.9
N     1.6   11.4   -0.9
P     7.8   -4.4    7.3
H     7.0    9.0    1.9
H    -2.7    5.4   -9.9
P    -6.7    6.0    7.3
I    -5.0    4.4    9.5
H    10.1    5.7    0.0
P    11.5    0.8   -1.7
H     1.6    4.1   10.8
H    -5.0    9.7    4.0
I     5.8   -3.3    9.5
C    -1.3   -9.2    7.1
H    -0.4   -1.3   11.6
P    -3.1   11.1   -1.7
H     1.5  -11.5    1.8
H     9.6    5.9   -2.9
C    -8.2   -4.2    7.1
H     2.0   11.5    0.1
C     9.7    6.4   -1.9
H    -2.3   -8.8    7.4
H     2.3   11.1   -2.9
I    -9.1   -3.9   -6.3
N    -4.9    8.9   -5.9
I    -0.7   -9.9   -6.3
H     5.2    7.5   -7.4
C     2.7   11.3   -1.9
I     9.3   -6.0   -4.0
H     3.2   -3.3  -10.8
I     2.6   -7.8   -8.5
H    -7.6   -5.1    7.4
N     6.4    0.1   -9.9
H    -4.1    9.0   -6.4
H    -5.1   -7.9   -7.1
H     8.8   -2.8   -7.4
H     5.0    1.5  -10.6
H     6.9   -6.5   -7.1
H    -0.3    5.3  -10.6
H     8.2   -8.5   -1.1
H    -4.3    2.0  -10.9
H     6.2    8.9   -4.9
I    -8.3   -0.1   -8.5
P    -6.8   -9.6   -1.7
I    -8.8    6.9   -4.0
N    -2.1    6.2   -9.9
H     2.2  -11.0    4.0
H   -10.8    5.0   -1.1
C     2.6   -4.2  -10.9
I    -4.6  -10.3   -3.9
C     2.4    3.4   11.2
H    -5.7    7.5   -7.4
H     9.7   -3.6   -6.0
P    -3.2   -4.4  -10.7
I     5.9    4.4    9.5
I     2.2    7.0    9.5
C    -5.0    1.2  -10.9
I    10.3    5.6    2.7
I    -8.3   -7.8   -3.9
H     5.9    9.7    4.0
H     3.4    3.8   11.0
I     1.9   11.6    2.7
H    -2.0   -0.7   11.9
H     5.8   -7.9   -7.1
I     2.4    3.4  -11.4
H    11.0    5.0   -1.1
H     3.3   -5.1  -10.6
C    -1.9   -2.8   11.7
N     6.0    8.9   -5.9
N    -1.3   -1.5   12.1
I    -5.1  -11.1    0.5
H    -6.0    1.5  -10.6
I    -8.8   -8.5    0.5
H     1.0   12.2   -1.1
H     3.3  -11.7    1.9
H    10.5   -1.3   -6.4
I    10.0   -5.2    5.1
H    -1.1   11.9    3.0
I    -8.2    7.7    5.1
H    11.8    2.2    3.3
I    -4.3    0.5   11.7
C     2.3  -12.1    2.2
C     6.0    1.2  -10.9
C    -1.0    6.1  -10.9
I     1.9   -3.9   11.7
H     7.3   -0.2  -10.1
I   -12.2   -1.7   -2.4
H    -9.4    4.1   -7.2
I     2.3  -12.1   -2.4
H     5.3    9.6   -6.1
I    -8.2   -0.1    9.5
H    -1.1   -3.6   12.0
I     5.8  -11.1    0.5
