         400
 sphere cut out from bulk 
I     1.9    0.1   -0.5
P    -0.9    2.0   -0.7
H    -1.4   -1.8    1.2
I    -2.5   -0.8   -0.9
H    -1.2   -1.0    2.6
I    -1.2    1.7    2.5
N    -1.4   -1.9    2.2
H     0.6   -2.6    2.3
H     3.3    0.8    1.7
H    -1.5   -1.4   -3.4
C    -0.3   -2.9    2.7
H     2.7    1.5   -2.5
H    -2.3   -2.2    2.5
H     2.1    2.8    2.5
I    -0.8    2.0   -3.8
H     0.3   -3.0   -3.4
H    -0.6   -3.9    2.3
P     3.7   -2.6   -0.7
N     3.6    1.3    2.6
I     1.1   -4.5   -0.5
I     0.9    4.6   -0.5
H     3.2    0.9    3.4
H    -0.4   -2.9    3.8
N    -1.3   -2.0   -4.2
C     3.2    2.7    2.6
N     3.1    2.2   -3.2
H     2.2    2.8   -3.5
H    -1.2   -3.8   -3.1
C    -0.6   -3.2   -3.8
H     3.6    3.2    1.7
H    -4.2    1.3    2.6
H    -0.8   -1.5   -4.9
I    -3.6    3.7   -0.8
I     4.0   -2.6    2.5
H     3.7    2.8   -2.6
H     4.6    1.3    2.6
H    -2.3   -2.2   -4.6
H    -0.7    5.2    2.3
H     2.9    1.0   -4.9
I     1.9   -0.0    5.5
P    -5.2   -2.6   -0.7
H     3.6    3.2    3.5
H    -5.6    0.8    1.7
C     3.7    1.6   -4.4
I     3.7   -2.6   -3.9
N    -5.2    1.3    2.6
H    -4.3    1.0   -4.0
P    -0.9    1.8    5.7
I    -4.9   -2.6    2.5
H    -0.5   -3.9   -4.7
H     4.5    1.0   -4.0
H    -1.4    5.3   -3.1
I    -2.5   -0.8    5.8
H    -5.3    3.2    1.7
I    -3.4   -5.3   -0.8
H    -5.1    2.8   -2.6
I     6.3   -0.8   -0.9
I     5.3    3.7   -0.8
H    -5.6    0.9    3.4
C    -0.5    6.2    2.7
H    -6.1    1.5   -2.5
C    -5.7    2.7    2.6
H     4.0    2.4   -5.0
H     0.5    6.5    2.3
C    -5.2    1.6   -4.4
N    -5.8    2.2   -3.2
H     0.2    6.1   -3.4
I     0.9   -0.8   -6.9
I    -7.0    0.1   -0.5
I    -5.2   -2.6   -3.9
C    -0.8    5.8   -3.8
H    -0.6    5.2   -4.7
H    -5.3    3.2    3.5
H     3.7   -5.9    1.7
H     2.2   -6.3    2.5
P    -0.8   -7.1   -0.7
I     1.1    4.4    5.6
H    -0.5    6.2    3.8
P     3.7   -2.7    5.7
P    -0.9    1.9   -7.0
H     6.5   -2.2    2.5
H    -4.8    2.4   -5.0
I     1.2   -4.7    5.6
P     3.5    6.4   -0.7
H    -1.5    7.2    1.2
H     2.4   -6.3   -3.5
C     3.3   -6.3    2.6
N    -1.5    7.1    2.2
I     5.4   -5.3   -0.8
H     3.7   -5.8    3.5
H    -2.5    6.9    2.5
H    -5.9    1.0   -4.9
H    -6.8    2.8    2.5
I    -3.5    3.7    5.9
H     7.4   -1.8    1.2
H     3.9   -6.3   -2.6
I    -1.1   -7.4    2.5
I     3.8    6.5    2.5
I    -3.4   -0.1   -7.2
H    -6.6    2.8   -3.5
H    -5.1   -5.9    1.7
H    -0.2   -2.2    7.7
N     7.5   -1.9    2.2
I    -0.7   -7.1   -3.8
I     1.7    3.7   -7.0
P    -5.1   -2.7    5.7
H     7.6   -1.0    2.6
P     7.9    2.0   -0.7
N     3.2   -6.9   -3.2
H     7.4   -1.4   -3.4
I     7.7    1.7    2.5
P     3.5   -2.7   -7.1
I     3.6    6.4   -3.9
H     6.6   -2.2   -4.6
N    -1.5    7.1   -4.2
P    -5.3    6.4   -0.7
H    -5.0   -6.3   -2.6
H     2.8   -7.6   -2.5
H    -5.2   -5.8    3.5
H    -1.6    7.7   -3.4
I    -5.0    6.5    2.5
H    -2.4    6.9   -4.6
I     6.3   -0.8    5.8
H    -1.3    8.1    2.6
I    -3.3   -5.4    5.9
I    -2.7    8.3   -0.9
H     2.2    2.3    8.2
H    -1.3   -3.6    7.9
C    -5.6   -6.3    2.6
I     5.4    3.7    5.9
N     7.5   -2.0   -4.2
I    -7.0   -0.0    5.5
C    -0.6   -3.0    8.4
H    -8.2   -2.6    2.3
I    -2.6   -4.5   -7.3
I     1.8   -5.3   -7.0
N     3.7   -7.8    2.6
I    -2.7    4.6   -7.3
H     4.0    0.6    8.1
I     5.5   -0.1   -7.2
I    -7.8   -4.5   -0.5
H     7.6   -3.8   -3.1
H     3.4   -8.2    1.7
I    -0.7    1.9    8.9
H    -0.9    7.6   -4.9
I     8.1    2.0   -3.8
I    -7.9    4.6   -0.5
H     3.7    3.0    7.8
I     2.0   -9.0   -0.5
H    -4.1   -7.8    2.6
I    -5.3    6.4   -3.9
P    -0.7   -7.2    5.7
P    -5.3   -2.7   -7.1
P     3.6    6.4    5.7
H     4.2   -6.7   -5.0
I     1.8    9.2   -0.5
C     8.5   -2.9    2.7
H     8.3   -3.9    2.3
H    -0.9   -1.3   -9.3
H     0.3   -3.6    8.7
H    -4.9    0.6    8.1
N     3.1    2.5    8.6
N    -5.7   -6.9   -3.2
C     3.8   -7.5   -4.4
H    -6.6   -6.3    2.5
H     3.3   -8.2    3.4
H     4.8   -7.8    2.6
H     8.1   -1.5   -4.9
H    -4.7   -6.7   -5.0
C     8.2   -3.2   -3.8
N    -5.1   -7.8    2.6
H    -8.5   -3.0   -3.4
H     7.5    5.3   -3.1
I     5.5   -5.4    5.9
H    -6.5   -6.3   -3.5
H    -2.0   -1.8    9.3
H    -1.4    5.5    7.9
H     6.4    6.9    2.5
H     8.5   -2.9    3.8
C     3.8    1.3    8.9
H    -5.2    3.0    7.8
H     3.9    1.7   -9.0
H     8.2    5.2    2.3
N    -1.2   -2.4    9.6
H     3.1   -8.1   -4.9
H    -4.2   -8.1   -4.0
P     8.0    1.8    5.7
H    -6.0   -7.6   -2.5
P    -9.8    2.0   -0.7
C    -9.2   -2.9    2.7
C    -5.0   -7.5   -4.4
I     3.8   -2.6    8.9
H    -5.5   -8.2    1.7
P    -0.7   -7.2   -7.0
P    -5.2    6.4    5.7
H    -1.3   -3.6   -9.3
H     9.5   -2.6    2.3
P     3.4    6.4   -7.1
H     4.7   -8.1   -4.0
I    -2.4   -9.9   -0.9
H     9.2   -3.0   -3.4
H     3.2    0.7    9.7
H    -0.5   -1.8   10.1
H     0.2    5.5    8.7
H    -4.0    1.5    9.4
H     3.0    3.1    9.4
H     8.3   -3.9   -4.7
C    -5.0    1.3    8.9
H    -0.3    6.9    7.7
H     7.3    7.2    1.2
I     6.2    8.3   -0.9
H    -5.0    1.7   -9.0
C    -0.7    6.1    8.4
H    -9.2   -2.9    3.8
I    -2.7    8.2    5.8
C    -1.3   -1.8  -10.2
H    -1.1  -10.0    2.6
H   -10.1   -1.0    2.6
H    -9.4   -3.9    2.3
H    -5.5   -8.2    3.4
I    -0.7    2.0  -10.3
H     6.5    6.9   -4.6
I   -10.0    1.7    2.5
N     7.4    7.1    2.2
H   -10.3   -1.8    1.2
H     3.1    9.9    1.7
I     6.1    4.6   -7.3
I    -7.8    4.4    5.6
I    -7.9   -0.8   -6.9
I    -7.6   -4.7    5.6
I    -5.0   -2.6    8.9
I    -9.6    2.0   -3.8
I     6.2   -4.5   -7.3
N    -5.7    2.5    8.6
H     3.8   -6.0    7.8
H    -2.4   -1.7  -10.2
H     4.8    1.5    9.4
H     0.2   -3.2  -10.1
H     1.9    2.4  -10.2
N   -10.2   -1.9    2.2
I    -7.1    3.7   -7.0
C     8.1    5.8   -3.8
N    -0.9   -3.2  -10.2
I     1.7    9.1    5.5
C    -9.5   -3.2   -3.8
P     8.0   -7.1   -0.7
I    10.8    0.1   -0.5
C     8.4    6.2    2.7
H    -6.7    2.3    8.2
I     0.8    8.3   -6.9
I     2.0   -9.1    5.5
H     8.2    5.2   -4.7
H    -1.5   -3.1   10.3
I     9.8    4.6   -0.5
P     8.0    1.9   -7.0
H    -8.4    6.5    2.3
H     2.3   -6.8    8.2
H    -1.4    5.4   -9.3
I     9.9   -4.5   -0.5
C     3.9    1.7  -10.1
H    -9.7   -1.5   -4.9
H     3.1    9.9    3.4
H   -10.4   -1.4   -3.4
P    -5.5    6.4   -7.1
I     7.8   -7.4    2.5
H    -1.3  -10.9    1.2
H     8.4    6.2    3.8
N     7.4    7.1   -4.2
H    -1.4  -10.5   -3.4
H     7.2    7.7   -3.4
H    -5.8   -8.1   -4.9
I     3.2   -2.8  -10.3
H    -5.0   -6.0    7.8
P    -1.1   11.0   -0.7
H     3.7    0.7  -10.5
H    -8.7    6.1   -3.4
H    -9.6    5.2    2.3
H     2.6   10.6   -2.5
I    -1.3   10.8    2.5
H    -9.4   -3.9   -4.7
H     3.0    3.6  -10.1
H    -0.9   -1.3  -11.1
H   -10.1   -3.8   -3.1
N   -10.2   -2.0   -4.2
N     2.9    2.6  -10.5
H    -5.6    0.7    9.7
I    -7.0   -5.3   -7.0
N     3.5   10.4    2.6
N     3.3   -6.6    8.6
I    -6.8   -9.0   -0.5
N    -1.3  -11.0    2.2
H    -4.0    2.0  -10.4
C    -5.0    1.7  -10.1
H     7.5    8.1    2.6
P    -9.7    1.8    5.7
I    -0.6   -7.2    8.9
H     9.1    6.1   -3.4
I   -11.4   -0.8   -0.9
H     7.6   -3.6    7.9
I     8.2   -7.1   -3.8
H     2.8   10.0   -4.9
H    -5.9    3.1    9.4
H    -4.3   10.3    2.6
C    -9.3    6.2    2.7
H     3.1   -6.0    9.4
H    -5.7    9.9    1.7
H    10.9    2.8    2.5
H     4.5   10.3    2.6
I    -7.1    9.2   -0.5
I     3.7    6.5    8.9
H     9.4    6.5    2.3
H    -0.7  -10.5   -4.9
H     4.9    2.0  -10.4
H    -1.2   -3.7  -11.0
H     4.4   10.0   -4.0
H     6.9   -1.8    9.3
H   -11.2   -2.2    2.5
H     0.0    5.8  -10.1
H    -5.2    0.7  -10.5
H    -4.5   10.0   -4.0
I    -2.4   -9.9    5.8
I    -0.9   11.0   -3.8
N    -1.3    6.7    9.6
H    -2.2  -11.3    2.5
H     8.6   -2.2    7.7
N    -1.0    5.9  -10.2
H    -9.5    5.2   -4.7
I     6.2    8.2    5.8
H    -9.4    6.2    3.8
I     6.5   -9.9   -0.9
C    -9.6    5.8   -3.8
H     0.8  -11.6    2.3
N    -1.2  -11.1   -4.2
H   -10.2    5.3   -3.1
H    11.6    1.5   -2.5
H     3.2   -5.5  -10.1
H    11.1    2.8   -3.5
H    -5.8    9.9    3.4
N    -5.4   10.4    2.6
I     9.8   -0.8   -6.9
H    -1.7    6.0   10.3
H    -2.1    7.3    9.3
I     1.0   -0.8   11.9
P    -9.7   -7.1   -0.7
I    -3.5    9.0   -7.2
I    -5.7   -2.8  -10.3
H     7.9    7.6   -4.9
I    10.7   -0.0    5.5
C     3.6   10.7   -4.4
I     1.0   -9.9   -6.9
I    -3.3   -9.2   -7.2
N     2.9   11.3   -3.2
H    -9.1   -2.2    7.7
H     7.4    5.5    7.9
N    -5.6   -6.6    8.6
P    -9.7    1.9   -7.0
I    -5.2    6.5    8.9
C     8.3   -3.0    8.4
H    -1.1    7.8   -9.3
I     8.2    1.9    8.9
P    -0.7    1.9   12.0
H     2.8    2.7  -11.6
H     6.5   -1.7  -10.2
H    -5.8    3.6  -10.1
I    10.0    4.4    5.6
H   -11.1   -2.2   -4.6
C    -0.2  -12.0    2.7
H    12.1    0.8    1.7
H     2.0   11.8    2.5
P     8.1   -7.2    5.7
H     7.9   -1.3   -9.3
H     4.0   -7.4   -9.0
P     3.8  -11.7   -0.7
H    -1.4    5.4  -11.0
P    -1.0   10.9    5.7
H     4.1   -8.4    8.1
H    -2.1  -11.3   -4.6
N    -6.0    2.6  -10.5
H     2.0   -6.7  -10.2
I     3.1    6.3  -10.3
I    10.1   -4.7    5.6
H    -6.5   -6.8    8.2
C     3.1   11.8    2.6
I    -9.5   -7.1   -3.8
H    -0.6    7.3   10.1
N     7.7   -2.4    9.6
I    -0.5   -7.1  -10.3
H     0.5  -12.0   -3.4
H    -5.8   -6.0    9.4
H     2.1   11.8   -3.5
H    -6.3   10.6   -2.5
C     4.0   -7.8    8.9
N    11.9    2.2   -3.2
I     2.0    3.7   11.8
H    -6.9    2.4  -10.2
H     7.6   -3.6   -9.3
H    -0.2  -12.0    3.8
H    12.1    0.9    3.4
I    -9.9   -7.4    2.5
H    -4.8   -8.4    8.1
