         400
 sphere cut out from bulk 
I    -0.4    0.4   -0.3
H    -1.5    1.6    1.8
P    -2.3   -2.2   -0.0
P     2.2    2.3    0.1
H     2.3   -0.9   -2.2
H     1.6   -1.9    2.3
H     0.8   -1.3   -3.1
H    -1.8    2.2   -2.1
N    -2.4    1.9    2.3
C     1.9   -1.4   -3.1
H    -3.1    1.2    2.0
I     4.1   -0.2    0.5
I     0.2   -4.2   -0.4
I    -1.8   -2.1    3.2
H    -2.8    2.8    1.9
I     1.6    2.5    3.2
H     1.8   -3.3   -2.3
C     1.8   -2.5    3.2
C    -2.0    3.0   -2.8
H    -1.8    1.1    4.1
H     2.3   -0.9   -4.0
I     2.8    2.3   -3.1
H     1.5   -2.0    4.1
H    -1.0    3.4   -3.2
N     2.2   -2.8   -3.1
C    -2.2    2.0    3.7
I    -4.8   -0.2    0.5
H     1.3   -3.5    3.1
I    -3.0   -2.3   -3.1
I     0.3    4.9   -0.4
H    -1.5    2.8    3.9
H    -2.6    3.8   -2.4
H    -2.2    1.6   -4.4
H     3.7   -1.9    3.3
N     3.2   -2.8    3.2
N    -2.7    2.4   -4.0
H     3.3   -2.9   -3.1
H     3.6   -3.3    2.4
H     1.8   -3.3   -4.0
H    -3.6    2.0   -3.6
H    -3.2    2.2    4.2
I    -0.4    0.4   -5.8
I    -4.2    4.4    0.5
H     5.8    1.2    2.0
H     3.5   -3.4    4.1
H    -2.9    3.1   -4.7
I    -4.3   -4.7    0.5
H    -2.6   -5.3   -2.4
H    -5.2   -1.9    3.3
I     4.7    4.4    0.5
H     1.9    5.8   -2.3
H     1.3    5.6    3.1
H    -1.1   -5.7   -3.2
I     4.6   -4.7    0.5
H    -5.3   -3.3    2.4
H     5.3    2.0   -3.6
I    -0.4    0.4    6.8
P     6.6   -2.2   -0.0
H     6.1    2.8    1.9
P    -2.3   -2.2   -6.2
P     2.1    2.3   -6.3
C    -2.0   -6.1   -2.8
H    -6.6   -0.9   -2.2
P     2.1    2.3    6.3
I     5.9   -2.3   -3.1
H    -5.6   -2.9   -3.1
P     2.1   -6.8    0.1
P    -2.3   -2.2    6.4
N    -5.7   -2.8    3.2
P    -6.7    2.3    0.1
I     0.2   -4.2   -5.8
N     6.5    1.9    2.3
H    -2.8   -6.3    1.9
I     4.1   -0.2    5.9
I    -6.1    2.3   -3.1
H     3.6    5.8    2.4
P    -2.2    6.9   -0.0
H     1.9    5.8   -4.0
N     2.3    6.3   -3.1
H    -1.8   -6.9   -2.1
H     5.8    2.2    4.2
I     1.5   -6.6    3.2
C     1.8    6.6    3.2
H    -1.5   -6.3    3.9
I     0.2    4.9   -5.8
H    -5.4   -3.4    4.1
I    -4.8   -0.2    5.9
H     3.3    6.2   -3.1
H     1.6    7.2    2.3
N     6.2    2.4   -4.0
H     7.1    2.2   -2.1
H     6.3    3.8   -2.4
H     7.4    1.6    1.8
H    -6.6   -0.9   -4.0
C    -7.0   -1.4   -3.1
N     3.3    6.3    3.2
H    -1.6   -7.5    1.8
I     4.1   -0.2   -6.7
H     3.5    5.7    4.1
N    -6.7   -2.8   -3.1
H    -7.3   -1.9    2.3
I    -1.8    7.0    3.2
N    -2.4   -7.2    2.3
C     6.7    2.0    3.7
I     2.7   -6.8   -3.1
I    -3.0    6.8   -3.1
I     0.2   -4.2    6.8
I     7.1   -2.1    3.2
C     6.9    3.0   -2.8
H    -7.1   -3.3   -2.3
H    -3.0   -6.0   -4.7
H     6.0    3.1   -4.7
C    -7.1   -2.5    3.2
H    -5.3    5.8    2.4
H     6.7    1.6   -4.4
I    -4.8   -0.2   -6.7
N    -2.8   -6.7   -4.0
H     7.1    1.1    4.1
H     1.5    7.1    4.1
C    -2.2   -7.1    3.7
I    -7.3    2.5    3.2
I     0.3    4.9    6.8
H     0.8    7.8   -3.1
I    -4.2    4.4    6.0
C     1.9    7.7   -3.1
I     8.5    0.4   -0.3
H     6.3   -5.3   -2.4
H    -2.1    1.7    8.2
H    -3.2   -6.9    4.2
H    -7.5   -2.0    4.1
I    -0.4   -8.7   -0.3
I    -4.3   -4.7    6.0
I     4.7    4.4    6.0
H    -7.1   -3.3   -4.0
H    -3.7   -7.1   -3.6
H    -1.8    1.0   -8.5
H    -3.1   -7.9    2.0
H     2.3    8.2   -2.2
H    -8.1   -1.3   -3.1
H     3.8    7.2    3.3
H     7.4    2.8    3.9
H    -5.4    5.7    4.1
H     1.4   -2.0   -8.5
H    -5.6    6.2   -3.1
I     4.6   -4.7    6.0
H    -2.2   -7.5   -4.4
H    -7.7   -3.5    3.1
H     2.3   -0.9    8.6
H     6.1   -6.3    1.9
I    -4.3    4.3   -6.6
H    -2.9    3.1    7.9
N    -5.6    6.3    3.2
H     7.9    3.4   -3.2
I     4.6    4.3   -6.6
H    -1.8   -8.0    4.1
I    -4.3   -4.8   -6.6
H    -3.2    2.2   -8.4
H    -1.5    2.8   -8.7
I    -9.3    0.4   -0.3
P     6.6   -2.2   -6.2
C    -2.2    2.0   -8.9
I     4.6   -4.8   -6.6
N    -2.7    2.4    8.6
H    -7.0    5.8   -2.3
H     1.9   -3.2    8.6
H     2.3    8.2   -4.0
H    -5.1    7.2    3.3
P     6.6   -2.2    6.4
P     2.1   -6.8    6.3
I     5.9    6.8   -3.1
P     2.0   -6.8   -6.3
H     5.2   -7.1   -3.6
I    -0.3    9.5   -0.3
P    -6.8    2.3    6.3
P    -2.3    6.9   -6.2
P    -6.8    2.3   -6.3
P    -6.8   -6.8    0.1
P     6.7    6.9   -0.0
I    -8.7   -4.2   -0.4
H     5.9   -6.0   -4.7
C     6.9   -6.1   -2.8
H     0.8   -1.3    9.5
N    -6.6    6.3   -3.1
P    -2.2    6.9    6.4
I    -6.2   -6.8   -3.1
C     1.9   -1.3    9.5
H     3.4   -3.4   -8.5
I    -1.9   -2.1   -9.4
I     1.5    2.5   -9.4
H    -3.6    2.1    9.0
H     5.7   -6.9    4.2
I     4.2    8.9    0.5
N     6.1   -6.7   -4.0
N     6.5   -7.2    2.3
C     1.7   -2.6   -9.4
H    -7.6    5.6    3.1
I    -8.6    4.9   -0.4
H    -7.0    5.8   -4.0
H     5.8   -7.9    2.0
I     9.1   -4.2   -0.4
H    -1.0    3.4    9.4
H     7.1   -6.9   -2.1
I    -4.7    8.9    0.5
I     4.1   -9.3    0.5
N     2.3   -2.8    9.5
I     2.8    2.3    9.5
C    -7.1    6.6    3.2
H     3.7   -1.9   -9.3
H     7.8   -5.7   -3.2
I    -3.0   -2.3    9.5
H     1.2   -3.5   -9.5
H     9.7   -1.3   -3.1
I     8.5    0.4   -5.8
N     3.2   -2.8   -9.4
H    -2.9   -6.0    7.9
H     5.7    2.2   -8.4
I    -7.4   -6.6    3.2
C    -1.9    3.0    9.8
C     6.7   -7.1    3.7
H     3.3   -2.9    9.5
H     7.4   -6.3    3.9
I     9.2    4.9   -0.4
H     6.0    3.1    7.9
I    -4.8   -9.3    0.5
H    -7.3    7.2    2.3
I    -0.5   -8.7   -5.8
I     7.1    7.0    3.2
H     2.2  -10.0   -2.2
H     7.3   -7.5    1.8
H     1.9    5.9    8.6
H     5.3    2.1    9.0
H     1.5   -2.0  -10.3
H    -5.5   -3.4   -8.5
H   -10.4    1.6    1.8
H     2.3   -0.9   10.4
H    -6.6    8.2   -2.2
H     6.8    1.7    8.2
N    -2.4    1.9  -10.3
H    -5.2   -1.9   -9.3
H     3.5    5.7   -8.5
H    -1.6   -6.3   -8.7
H     0.7  -10.4   -3.1
C    -7.0    7.7   -3.1
H    -6.6   -0.9    8.6
H    -3.0   10.3    2.0
H    10.5   -1.9    2.3
H    -1.7    2.2   10.5
I     8.5    0.4    6.8
N     6.2    2.4    8.6
H     6.7   -7.5   -4.4
H    -9.9    3.4   -3.2
H     1.9   -3.3   10.3
H     2.2  -10.0   -4.0
H    -1.5   10.7    1.8
I    -9.4    0.4   -5.8
H    -7.4    7.1    4.1
H    -1.0   -5.7    9.4
H    -1.6    1.6  -10.8
C     1.8  -10.5   -3.1
I    -0.5   -8.7    6.8
H    -3.1    1.1  -10.6
H    -1.7   10.2    4.1
I    -0.4    9.5   -5.8
H     1.3    5.6   -9.5
H   -10.7    2.2   -2.1
H     7.1    1.0   -8.5
H    10.2   -3.5    3.1
H     1.5    7.1   -8.5
H    -2.5    3.8   10.2
I    10.5    2.5    3.2
H    -6.6    8.2   -4.0
N    -2.7   -6.7    8.6
H    -2.2   -7.4    8.2
C     6.7    2.0   -8.9
I    -8.7   -4.2   -5.8
H     3.5   -3.3  -10.2
C    10.8   -1.4   -3.1
H    10.4   -2.0    4.1
P    11.1    2.3    0.1
N    -5.7   -2.8   -9.4
H     1.5  -11.0    2.3
H    -3.2   -6.9   -8.4
H    -5.6   -2.9    9.5
P   -11.2   -2.2   -0.0
I   -10.8   -2.1    3.2
C    10.7   -2.5    3.2
I     5.9   -2.3    9.5
P     6.6    6.9   -6.2
H    -2.8    2.8  -10.7
H    11.2   -0.9   -2.2
H    10.7   -3.3   -2.3
H   -10.4    2.8    3.9
H     7.1   -8.0    4.1
N    -2.3   11.0    2.3
H   -10.7    1.1    4.1
I     4.2    8.9    5.9
P    -2.3  -11.3   -0.0
P    -6.8   -6.8    6.3
I    -6.1    2.3    9.5
I    -8.7    4.9   -5.8
I     9.1   -4.2   -5.8
I    -9.3    0.4    6.8
H    -7.5   -2.0   -8.5
P     6.7    6.9    6.4
P    -6.9   -6.8   -6.3
H     6.0   -6.0    7.9
I     1.5   -6.6   -9.4
C    -2.3   -7.1   -8.9
H    -7.0   -3.2    8.6
H    -5.4    5.7   -8.5
C   -10.9    3.0   -2.8
H    -1.7   11.3   -2.1
N     2.3    6.3    9.5
C     1.8    6.5   -9.4
P     2.2   11.4    0.1
H    -8.1    7.8   -3.1
N   -11.3    1.9    2.3
C    -2.0   -6.1    9.8
I    -0.3    9.5    6.8
I     4.1   -9.3    5.9
I    -4.7    8.9    5.9
H     7.4    2.8   -8.7
N     3.2    6.3   -9.4
I    -1.9  -11.2    3.2
H    -2.6   -5.3   10.2
H    -2.1   10.7   -4.4
H     3.4    6.2    9.5
I    -8.7   -4.2    6.8
I     9.1    4.9   -5.8
I    -1.8    7.0   -9.4
C   -11.1    2.0    3.7
H    -1.9   -8.1   -8.5
C    -7.0   -1.3    9.5
I     4.1    8.9   -6.7
H    10.7   -3.3   -4.0
N    -6.6   -2.8    9.5
H     1.4  -11.1    4.1
N    11.1   -2.8   -3.1
H    11.2   -0.9   -4.0
C    -2.1   11.1    3.7
I     7.0   -2.1   -9.4
H   -10.0   -5.7   -3.2
H    -3.6   -7.0    9.0
H     5.9   10.3    2.0
H    -5.4   -3.3  -10.2
H     1.9    5.8   10.3
I    -4.8   -9.3    5.9
I     2.8   -6.8    9.5
H   -11.1    1.6   -4.4
I    -2.9    6.8    9.5
H    10.2    5.6    3.1
H     3.7  -11.0    3.3
I    -8.6    4.9    6.8
H     5.8    1.1  -10.6
I     2.8   11.4   -3.1
I    -4.8    8.9   -6.7
I     9.1   -4.2    6.8
I     4.0   -9.3   -6.7
C    -7.2   -2.6   -9.4
H   -11.7    2.8    1.9
H     2.4    8.2    8.6
I     1.6   11.6    3.2
I     8.5   -8.7   -0.3
C     1.7  -11.6    3.2
H   -12.0    1.2    2.0
I    -7.4    2.5   -9.4
H    -6.7  -10.0   -2.2
H    -3.6   11.1   -3.6
H     3.6    5.8  -10.2
I    -3.1  -11.4   -3.1
H     5.7   -6.9   -8.4
I    11.7    2.3   -3.1
I    -0.3    0.4   12.3
H   -11.5    3.8   -2.4
H     3.8    7.2   -9.3
H    -2.7   11.9    1.9
N     6.5    1.9  -10.3
H    -6.6   -0.9   10.4
H     0.9    7.8    9.5
C     7.0    3.0    9.8
C     2.0    7.8    9.5
I    -4.9   -9.3   -6.7
N    -2.7   11.5   -4.0
H    -3.1   11.3    4.2
I     9.2    4.9    6.8
H    10.8    5.8   -2.3
N   -11.6    2.4   -4.0
N     2.2  -11.9   -3.1
H    -8.1   -1.3    9.5
N     6.2   -6.7    8.6
H     5.3   -7.0    9.0
I   -11.9   -2.3   -3.1
C    -1.9   12.1   -2.8
H    -7.0    5.9    8.6
H    -5.5    6.2    9.5
H    -5.2  -11.0    3.3
N    -5.7    6.3   -9.4
H    -1.4   11.9    3.9
H     6.4    3.8   10.2
H     6.1    2.8  -10.7
