         400
 sphere cut out from bulk 
P     0.4    0.0    2.0
P     0.3   -0.0   -2.2
I    -0.9    2.0   -0.1
I    -0.9   -2.2   -0.0
I     2.8   -0.1   -0.2
H     0.3   -4.2   -1.2
H    -2.9   -3.1    1.1
H    -3.4    2.9   -1.2
I    -2.1    0.1    4.2
I    -2.1    0.0   -4.2
H    -0.2    4.6    1.3
H     4.3    1.2   -1.7
I     1.5   -2.1    4.1
I     1.7    2.1    4.1
I     1.7    2.0   -4.3
H     1.1   -4.1   -2.6
I     1.5   -2.2   -4.2
H     4.6   -1.6    1.5
H    -3.9    1.3   -3.0
N     0.8   -4.8   -1.8
H     1.0    4.5    2.5
H    -3.9   -1.9    3.0
H    -4.8   -1.6    1.5
N    -3.8   -3.5    1.7
C     0.6    5.1    1.7
H     3.9    2.0   -3.1
H    -5.0    1.2   -1.7
C    -4.1    3.1   -1.9
H     1.4    5.3    1.0
H     4.0   -2.8    2.8
C    -4.5   -2.3    2.3
N    -4.6    1.9   -2.5
H     1.7   -5.2   -1.3
N     4.7    1.9   -2.5
C     4.8   -2.3    2.3
H     4.4    3.6   -1.4
H    -3.4   -4.1    2.4
H    -3.7    3.7   -2.7
H    -4.4   -4.0    1.0
H    -0.9   -5.5   -2.8
P     0.4    0.1    6.2
H    -5.0    3.6   -1.4
C     5.2    3.1   -1.9
H     5.5    1.3   -3.0
C    -0.0   -5.9   -2.4
P     0.3   -0.0   -6.4
H     5.0   -4.0    1.0
H     5.5   -1.9    3.0
I    -6.6   -0.1   -0.2
H    -5.4    2.0   -3.1
H    -5.4   -2.8    2.8
H    -3.9    1.4    5.3
H     6.0    2.9   -1.2
N     5.6   -3.5    1.7
N     0.1    6.4    2.3
H    -0.2   -6.6   -1.6
H     4.0    2.1    5.2
H    -0.6    6.2    3.0
I     3.7   -6.0   -0.1
H     0.9    4.5   -5.3
H     0.6   -6.4   -3.2
H    -0.2    7.0    1.6
H     0.8   -4.4    5.6
H    -3.9   -1.8   -5.8
H     6.4   -3.1    1.1
H     3.5   -3.1   -5.5
H     5.6    3.7   -2.7
I     3.9    6.2   -0.1
H     0.9    6.9    2.8
H    -0.7   -5.3    5.3
H     5.9   -4.1    2.4
H    -3.6    3.8    5.5
N    -4.6    1.9    5.8
H     5.5    1.4    5.3
H    -5.4    2.1    5.2
N     4.8    1.9    5.8
C     0.0   -5.0    6.1
I    -3.3   -6.0    4.0
I    -2.9    6.3    4.1
H     4.4    1.3    6.6
I    -3.0    6.1   -4.3
H    -1.2    5.4   -6.0
H     5.4   -1.8   -5.8
C     0.8    5.3   -6.1
H    -4.5   -4.1   -5.4
I    -3.4   -6.1   -4.3
N     4.3   -3.5   -6.1
C    -4.2   -2.4   -6.6
C    -4.0    3.2    6.4
H    -0.4   -4.4    6.9
I    -5.7   -6.0   -0.1
I    -5.5    6.2   -0.1
H    -3.2    3.0    7.1
H     4.8   -4.1   -5.4
H    -3.4   -2.8   -7.1
H    -5.0    1.3    6.6
I     7.2    0.0   -4.2
I     7.3    0.1    4.2
I    -2.1   -8.2   -0.0
I    -1.8    8.3   -0.0
H    -0.7    4.4   -7.2
H     1.0    6.3   -5.6
N    -0.5    5.3   -6.7
I    -0.8   -2.0    8.3
N    -5.1   -3.5   -6.1
H    -5.9   -3.1   -5.5
I    -0.7    2.3    8.4
C     5.1   -2.4   -6.6
I     8.5    2.0   -0.1
I    -0.9    2.2   -8.4
I     2.9    0.1    8.2
I    -1.0   -2.1   -8.4
I     8.5   -2.2   -0.0
H     1.6    5.2   -6.9
H     4.5   -1.8   -7.3
H     5.7    3.8    5.5
H     3.9   -4.1   -6.8
C     5.3    3.2    6.4
I    -7.7    2.1    4.1
I     2.7   -0.0   -8.5
H    -4.8   -1.8   -7.3
I    -7.7    2.0   -4.3
H     4.5    3.7    6.9
H     1.0   -6.8    5.9
I    -7.8   -2.1    4.1
N     0.6   -6.3    6.6
H    -4.8    3.7    6.9
P    -9.0    0.0    2.0
I    -7.9   -2.2   -4.2
P    -9.1   -0.0   -2.2
H    -7.7   -5.2   -1.3
I     6.0   -6.0    4.0
P    -4.2    8.2   -2.2
I     2.4   -8.2    4.2
P    -4.3    8.3    2.0
I     6.0   -6.1   -4.3
H     1.4   -6.0    7.3
H    -8.2   -4.1   -2.6
H    -0.7    6.1   -7.4
I     2.4   -8.2   -4.2
H    -0.5   -9.5    1.6
P    -4.6   -8.2    2.0
I     2.7    8.2   -4.2
H    -8.0    5.3    1.0
I     2.6    8.3    4.2
P    -4.5   -8.3   -2.2
H    -5.4   -4.1   -6.8
P     4.8   -8.2    2.0
H     6.0   -2.8   -7.1
H    -8.3    4.5    2.5
H     6.1    3.0    7.1
P     4.9   -8.3   -2.2
I     6.4    6.1   -4.3
P     9.6   -0.0   -2.2
I     6.4    6.3    4.1
P     5.0    8.3    2.0
H    -0.1   -6.8    7.2
P     5.1    8.2   -2.2
P     9.7    0.0    2.0
N    -8.5   -4.8   -1.8
H     0.0    9.8   -1.6
H     0.7   -9.6    2.8
H    -9.1   -4.2   -1.2
C    -8.7    5.1    1.7
H     9.1    4.6    1.3
N    -0.1  -10.1    2.3
P     0.5    0.1   10.4
I   -10.2    2.0   -0.1
H     8.4   -5.5   -2.8
I    -6.4    0.1    8.2
I   -10.2   -2.2   -0.0
H    -3.1   -2.8    9.7
H    -0.4    4.5    9.5
P     0.1   -0.0  -10.5
H     9.6   -4.2   -1.2
H     0.8   10.1   -3.2
H    -4.6   -1.7    9.4
H    -3.5    2.9   -9.7
H    -0.9  -10.2    3.0
H     4.8   -1.7    9.4
H    -9.6    4.6    1.3
C     0.2   10.5   -2.4
I    -6.7   -0.0   -8.5
I     3.6  -10.2   -0.1
H    -0.6   -4.5   -9.9
P    -9.0    0.1    6.2
I     7.3   -8.2   -0.0
I     3.8   -6.0    8.3
I     3.5   -6.1   -8.4
H    -8.4    4.5   -5.3
H     4.2    1.3  -10.1
P    -9.1   -0.0   -6.4
H     8.7    6.2    3.0
H    -8.5   -4.4    5.6
P    -4.4   -8.1    6.2
I     3.8    6.2   -8.5
I     4.0    6.2    8.3
P    -4.1    8.3    6.2
C    -4.0   -2.3   10.2
I     3.9   10.5   -0.1
I     7.5    8.3   -0.0
H    -0.4    6.1    9.4
P    -4.3    8.2   -6.4
H    -8.4    6.9    2.8
H     1.1  -11.2    1.0
H    -8.8   -6.4   -3.2
C    10.0    5.1    1.7
C     9.3   -5.9   -2.4
H     1.3    9.6    5.9
C    -9.3   -5.9   -2.4
H     1.8    5.3    9.9
H     1.2   -6.1   -9.5
H    -0.7   11.0   -2.8
H     9.1   -6.6   -1.6
P    -4.6   -8.2   -6.4
H     4.3    3.7   -9.9
N    -0.3    5.4   10.0
P     5.0   -8.1    6.2
I    -6.7    8.2   -4.2
N    10.2   -4.8   -1.8
H     8.1    5.4   -6.0
H     8.6   -5.3    5.3
I    -6.7    8.3    4.2
I    -3.2  -10.2    4.1
N    -9.2    6.4    2.3
P     4.8   -8.2   -6.4
H    -5.2    1.3  -10.1
H     4.2   -4.0    9.9
C     0.4  -11.4    1.7
I    -7.0   -8.2    4.2
H     1.9   11.3   -1.3
P     5.0    8.2   -6.4
P     9.7    0.1    6.2
P     9.6   -0.0   -6.4
H    10.5   -4.1   -2.6
H    10.4    4.5    2.5
I    -6.9   -8.2   -4.2
H    -7.8    5.2   -6.9
I    -3.0   10.4    4.0
H     9.1    7.0    1.6
P     5.2    8.3    6.2
H     0.7  -10.1   -5.6
I    -3.2  -10.3   -4.3
C    -4.3    3.1  -10.4
I    -5.3    6.2    8.3
N     9.5    6.4    2.3
I    -3.1   10.4   -4.3
H     5.9    2.9   -9.7
H    -5.1    3.7   -9.9
I    -5.6   -6.0    8.3
H    -3.7   -1.7   11.0
C     5.3   -2.3   10.2
I    -5.7  -10.2   -0.1
C    -8.5    5.3   -6.1
H    -9.6   -6.6   -1.6
I    -1.9   -8.2    8.3
I    -5.4   10.5   -0.1
I    10.8   -2.1    4.1
H     6.2   -2.8    9.7
I    -1.6    8.3    8.3
H    -0.3   -6.9   -9.6
C    -0.2   -5.1  -10.7
I    -5.5    6.2   -8.5
I    10.8   -2.2   -4.2
N     1.1   11.7   -1.8
H    -5.2   -4.0    9.9
I    -5.8   -6.1   -8.4
H    -8.4    6.3   -5.6
H    -0.5  -11.9    1.3
I    -1.9    8.2   -8.5
N     0.4   -6.3  -10.1
H    -9.6    7.0    1.6
I    11.0    2.1    4.1
I    11.0    2.0   -4.3
H   -10.3   -5.5   -2.8
N     4.5    1.9  -10.9
C     5.1    3.1  -10.4
H    10.7    5.3    1.0
C     1.1    5.4   10.7
H     0.2    9.6    7.2
I    -2.1   -8.2   -8.5
I     8.4   -2.1   -8.4
H     0.6   -4.5  -11.2
N    -4.8    1.9  -10.9
I     8.4    2.2   -8.4
N     4.5   -3.4   10.7
I    12.1   -0.1   -0.2
H    -1.0    5.4   10.8
H     8.7    4.4   -7.2
I     8.6   -2.0    8.3
H   -10.0    6.2    3.0
H     8.9   -4.4    6.9
I   -11.4    0.1    4.2
N     0.9   10.2    6.6
C    -9.3   -5.0    6.1
H     3.7   -3.0   11.2
I   -11.5    0.0   -4.2
H     9.9   -6.4   -3.2
H    -4.1    1.3  -11.4
N    -4.8   -3.4   10.7
H    11.0   -5.2   -1.3
I     8.6    2.3    8.4
C     9.4   -5.0    6.1
H     0.8  -12.0    2.5
H    -8.3   -6.8    5.9
H     0.5   12.2   -1.2
N     8.8    5.3   -6.7
H    -7.9   -6.0    7.3
H     3.7    2.0  -11.6
H     1.1    4.6   11.4
H    -0.5   11.2    5.3
H    10.2    4.5   -5.3
H    10.2   -4.4    5.6
H    -3.9    3.7  -11.2
H     5.7   -1.7   11.0
H   -10.1   -5.3    5.3
I     6.2  -10.2    4.1
N    -8.7   -6.3    6.6
H    -1.0   -5.3  -11.4
H     1.4   12.3   -2.6
H    10.3    6.9    2.8
H     5.3    1.3  -11.4
I    -1.9    0.1   12.5
H    -1.5  -11.1   -6.0
C     0.6  -11.1   -6.1
H   -12.3   -3.1    1.1
H    -9.7   -4.4    6.9
I     6.1  -10.3   -4.3
H    -0.9  -10.4   -7.4
H    -4.3   -4.0   11.3
I     1.9    2.0   12.5
I    -2.3    0.1  -12.6
H     1.7   10.4    7.3
I     1.7   -2.2   12.5
I     6.3   10.4    4.0
I     6.2   10.4   -4.3
H     1.2    6.4   11.1
I     1.3   -2.1  -12.6
H     8.7    6.1   -7.4
I     1.5    2.0  -12.7
H    -5.7   -3.0   11.2
H     0.8   -6.9  -10.9
H    -3.2   12.3    2.4
C     0.3   11.4    6.1
C    10.2    5.3   -6.1
H    -5.6    2.0  -11.6
H     5.5    3.7  -11.2
N    -9.9    5.3   -6.7
H     5.1   -4.0   11.3
N    -0.8  -11.2   -6.7
H     8.9   -9.5    1.6
H     0.6  -11.9   -5.3
H   -12.7    2.9   -1.2
H   -10.0    4.4   -7.2
H    -4.1   12.5    1.0
H    -8.7   -9.6    2.8
I   -10.1   -2.0    8.3
I   -10.0    2.3    8.4
H     1.3  -11.3   -6.9
H   -10.6    5.4   -6.0
H     1.1   12.0    5.6
H    10.3    6.3   -5.6
I   -10.3    2.2   -8.4
I   -10.3   -2.1   -8.4
H    -7.5    5.3    9.9
N    10.0   -6.3    6.6
H     4.1  -12.8   -1.4
H     9.3   -6.8    7.2
H    -0.1    9.6   -9.6
H     5.2   12.5    1.0
N    -3.5   13.0    1.7
H    -8.5   10.1   -3.2
H    -7.4   11.3   -1.3
H    -4.0  -12.7   -2.7
H     8.5  -10.2    3.0
H   -13.2    1.3   -3.0
P    -8.8    0.1   10.4
N   -13.1   -3.5    1.7
H    -9.4   -6.8    7.2
H    -2.7   13.3    1.1
H   -12.8   -4.1    2.4
H    -9.3    9.8   -1.6
H     9.4    9.8   -1.6
H   -13.2   -1.9    3.0
I     3.8  -10.2    8.3
H    10.4   -6.8    5.9
H    -9.8   -9.5    1.6
I     3.6  -10.3   -8.5
H    13.3    2.0   -3.1
H     8.9    4.5    9.5
I     7.5   -8.2    8.3
H   -10.0    6.1   -7.4
H    13.7    1.2   -1.7
H    -0.1   12.0    6.9
H    -8.1    9.6    5.9
H    13.3   -2.8    2.8
N     9.2  -10.1    2.3
I     3.8   10.4   -8.4
I     7.2   -8.2   -8.5
H   -13.1    3.7   -2.7
