         400
 sphere cut out from bulk 
I    -0.8   -0.2    1.1
H     0.4    0.0   -1.6
C     0.7    0.2   -2.6
H     1.1    2.2    1.5
H     1.3    1.1   -2.7
H    -0.2    0.2   -3.2
N     1.6   -0.9   -3.1
P    -3.3    1.4   -0.0
P     1.1   -2.2    2.6
H     2.4   -1.0   -2.5
H     1.1   -1.8   -3.1
C     1.4    2.8    2.4
I    -1.4    3.4   -1.6
H     1.2    2.1    3.3
I     3.8   -0.8    1.6
I     3.0    3.0   -1.0
I    -3.5   -0.5   -2.6
I     1.2   -4.3    0.1
H     1.9   -0.8   -4.1
H     2.4    3.0    2.4
H    -0.5    3.8    2.6
H    -2.0   -4.1   -0.1
N     0.6    4.0    2.5
H    -4.1   -2.8    0.1
H     0.7    4.6    1.7
H    -2.4    0.2    4.4
I    -3.1    3.2    2.7
H    -3.7   -0.5    3.7
H    -2.5   -1.5    4.4
I     1.1   -0.4    5.2
I    -5.1   -0.8    1.6
C    -2.9   -4.6    0.2
N    -3.0   -0.6    4.5
I    -0.5   -3.7   -4.0
I    -1.5   -3.7    3.8
N    -4.1   -3.8   -0.3
H     4.9   -2.8    0.1
H    -3.0   -4.6    1.3
H     3.9   -4.1    0.1
H     0.8    4.5    3.4
H    -4.1   -3.8   -1.3
H    -3.1    3.0   -3.9
P     5.6    1.4   -0.0
P     1.1    5.0   -2.6
I     5.4   -0.5   -2.6
N     4.8   -3.8   -0.3
H     4.8   -3.8   -1.3
I     1.2    3.2   -5.3
H    -3.2    5.4   -0.1
H    -3.1   -5.6   -0.1
H     5.2   -0.5    3.7
H    -5.0   -4.1    0.1
P    -3.2   -2.4   -5.2
I    -5.9    3.0   -1.0
P     1.2   -6.0   -2.6
H     0.8   -6.4    1.7
C    -3.8    3.1   -4.7
I     2.9   -4.5    4.1
I    -1.4   -0.1   -6.6
H     4.4    2.2   -4.7
H    -4.5    2.2   -4.7
I     1.1    6.8    0.1
H    -2.5    2.1   -6.1
I     3.9   -4.5   -3.6
C    -3.8   -0.5    5.8
H    -6.5   -1.0   -2.5
I     3.0   -0.9   -6.3
C    -3.1    6.5    0.2
I     5.8    3.2    2.7
H    -2.2    6.9   -0.1
H    -4.4    0.4    5.8
H    -3.1    6.5    1.3
N    -3.0    3.0   -6.0
H    -3.1   -0.6    6.6
H     4.5    0.4    5.8
H     4.4   -1.4    5.8
H     1.0   -6.5    3.4
N     5.9   -0.6    4.5
H    -4.5   -1.4    5.8
H    -2.3    3.8   -6.0
I    -0.7    3.8    6.4
H    -4.3    4.0   -4.7
C     6.0   -4.6    0.2
N     0.7   -7.0    2.5
H    -6.5    3.0    2.4
C     5.1    3.1   -4.7
H     5.8    3.0   -3.9
H     5.9   -4.6    1.3
I    -5.0   -4.5   -3.6
H     4.6    4.0   -4.7
C     5.1   -0.5    5.8
H    -0.3   -7.3    2.6
H     1.0   -2.9   -7.1
H     3.8    6.9    0.1
I    -1.3   -7.6   -1.6
H     6.4   -1.5    4.4
H     5.7    5.4   -0.1
H     6.5    0.2    4.4
H     1.8   -4.3    6.4
H    -0.2   -3.3    7.2
N    -7.3   -0.9   -3.1
P     1.0    1.4    7.8
H     6.9   -4.1   -0.1
P     1.2    1.4   -7.9
P     5.7   -2.4   -5.2
P    -3.4    5.1    5.3
H     5.8   -5.6   -0.1
H    -7.0   -0.8   -4.1
H    -7.7    1.1   -2.7
I     8.2   -0.2    1.1
H     1.2   -2.4    7.8
I     2.8    6.6    4.1
H    -7.8    2.2    1.5
H    -3.6    3.0   -6.8
I     3.7    3.0    6.8
C    -7.5    2.8    2.4
I     7.5    3.4   -1.6
I     3.7    6.6   -3.6
I    -0.6    7.3   -4.0
I    -1.6    7.3    3.8
N    -4.2    7.3   -0.3
P    -7.8   -2.2    2.6
I    -6.0   -4.5    4.1
H    -4.3    7.3   -1.3
C     0.6   -3.4    7.9
P    -3.3   -6.0    5.3
H    -5.1    6.9    0.1
C    -8.2    0.2   -2.6
H    -7.8   -1.8   -3.1
H    -8.5    0.0   -1.6
N     4.7    7.3   -0.3
H    -7.7    2.1    3.3
N     0.7   -3.5   -7.9
H    -0.3   -3.7   -7.9
C     5.8    6.5    0.2
I    -5.9   -0.9   -6.3
I     3.2   -8.1   -1.0
H     4.6    7.3   -1.3
H     2.6   -8.0    2.4
I    -3.0   -7.8    2.7
C     1.5   -8.3    2.4
N     1.5   -4.5    7.4
I    -7.7   -4.3    0.1
H     5.8   -0.6    6.6
H     5.8    6.5    1.3
N     5.9    3.0   -6.0
I    -1.5   -0.1    8.9
H     1.4   -5.3   -7.2
H     1.2   -8.8    1.5
H     6.4    2.1   -6.1
I    -5.2    3.0    6.8
H     5.3    3.0   -6.8
I    -5.2    6.6   -3.6
I     7.4   -3.7    3.8
P     5.5    5.1    5.3
H     1.0   -5.4    7.4
H     1.2    5.7   -7.2
P     1.0    8.8    2.6
H     0.9   -2.9   -8.8
H    -4.2    8.3    0.1
H     8.7    0.2   -3.2
I    -2.9   -4.2   -7.8
H     0.9    5.7    7.4
I    -7.8   -0.4    5.2
H    -2.9   -8.1   -3.9
H    -4.2   -7.0   -4.7
H     1.7    6.7    6.4
C     1.6   -4.7   -8.0
H     9.3    0.0   -1.6
H     2.4   -4.6    7.9
H     4.7    8.3    0.1
I     1.3   -7.8   -5.3
H    -8.2    4.6    1.7
I    -3.6   -4.1    7.9
H     0.4   -3.6    8.9
H     2.6   -4.4   -8.1
H     1.3   -8.9    3.3
N    -8.4    4.0    2.5
H     8.4    3.8    2.6
H    -2.9   -1.0   -9.1
P    -7.8    5.0   -2.6
H     6.8    6.9   -0.1
H    -9.1    0.2   -3.2
H     4.7   -7.0   -4.7
H     6.6    3.8   -6.0
H    -2.2   -7.3   -6.0
I    -9.7   -0.2    1.1
I    -0.6   -7.3    6.4
P     5.6   -6.0    5.3
H     0.9    9.2   -3.1
H    -8.1    4.5    3.4
I    -6.1    6.6    4.1
I    -7.7    3.2   -5.3
I     3.0   -0.6    9.4
C     9.6    0.2   -2.6
C    -3.6   -8.0   -4.7
I    -5.7   -8.1   -1.0
N     1.4    6.6    7.4
I    -0.7    3.4   -9.4
I     8.4   -3.7   -4.0
I     7.5   -0.1   -6.6
I     3.8    2.8   -8.9
P    -7.7   -6.0   -2.6
P    -3.2   -9.6   -0.0
I     5.9   -7.8    2.7
I    -7.8    6.8    0.1
C     1.4    6.3   -8.0
H    10.0    2.2    1.5
I     5.3   -4.1    7.9
H     1.4   -9.9   -2.7
H    -9.4    3.8    2.6
N    -2.9   -8.1   -6.0
I     1.3   -0.7  -10.3
H     1.3   -5.2   -8.9
H    -8.1   -6.4    1.7
H    -7.1   -4.3    6.4
H    -6.3   -8.0    2.4
H     2.3    6.5    7.9
H    -0.4    7.7    7.2
H    10.2    1.1   -2.7
N     9.5    4.0    2.5
H    10.0   -1.8   -3.1
P    10.0   -2.2    2.6
I    -5.1    2.8   -8.9
H     2.3   10.1   -2.5
P    -3.3    8.7   -5.2
C     5.3   -8.0   -4.7
C    -2.9   -1.0  -10.2
N     1.4   10.1   -3.1
I     6.0   -4.2   -7.8
H     1.1    5.8   -8.9
H     2.5    6.6   -8.1
H     6.0   -8.1   -3.9
H    -0.4    7.3   -7.9
H    -4.3    3.7    9.2
H    -2.0   -0.6  -10.6
H     9.6    4.6    1.7
H    -7.9   -6.5    3.4
I    -3.0    6.8   -7.8
H     0.9    8.1   -7.1
H    10.1    2.1    3.3
H    -2.7    9.5    4.4
I     7.6   -7.6   -1.6
I    -9.4   -3.7   -4.0
H     4.6    3.7    9.2
H    -4.3   -8.8   -4.7
C    10.3    2.8    2.4
I    -0.9   10.8    1.1
N    10.5   -0.9   -3.1
H    -3.3    1.9   10.3
H     6.0   -1.0   -9.1
N     0.6    7.6   -7.9
H     4.6   -8.8   -4.7
C     0.5    7.7    7.9
I   -10.3    3.4   -1.6
H    -7.9   -2.9   -7.1
I    10.1   -4.3    0.1
I     7.3    7.3    3.8
I     3.6   10.3    1.6
H    -2.2    3.3   10.3
H    -3.5   -8.0   -6.8
H    -2.4   -9.0   -6.1
I     8.2    3.8    6.4
P    -7.7    1.4   -7.9
I     1.1    3.2   10.6
N    -8.2   -7.0    2.5
H     4.0   -0.6  -10.4
H    -4.0    0.8  -10.4
I    -5.9   -0.6    9.4
I    -3.7    7.0    7.9
H     0.6  -11.0   -1.6
H    -6.3   -4.4   -8.1
H     0.3   11.1   -1.6
P    -3.4   -2.2   10.4
C     0.8  -10.8   -2.6
P    -7.9    1.4    7.8
H     1.7   10.3   -4.1
I     3.8   -8.0    6.8
H    -3.0   -2.0  -10.6
H    -7.7   -2.4    7.8
P     5.7   -9.6   -0.0
H    -6.5   -4.6    7.9
H     9.7    4.5    3.4
H    -0.1  -10.8   -3.2
I    10.0   -0.4    5.2
I    -0.6  -11.3    1.1
N    -7.4   -4.5    7.4
C    -7.4   -8.3    2.4
N    -4.0   -0.2  -10.7
I    -3.7   10.5   -2.6
P    10.0    5.0   -2.6
H     4.9    0.8  -10.4
C    -3.1    2.9   10.7
H    -5.0   -0.6  -10.4
P     5.6    8.7   -5.2
H     8.6   -7.3    2.6
H    10.8   -0.8   -4.1
C     0.6   11.3   -2.6
I     7.4   -0.1    8.9
H     6.7   -7.3   -6.0
H     0.2    7.5    8.9
H     3.7    3.3   10.5
H     1.1    8.6    7.8
I    -5.3   10.3    1.6
H    11.3   -1.0   -2.5
I   -10.4   -3.7    3.8
N    -4.3    3.7   10.2
H    -7.5   -5.3   -7.2
H   -10.9   -4.1   -0.1
N     6.0   -8.1   -6.0
I    -5.1   -8.0    6.8
I     5.2    7.0    7.9
H    -0.3   11.3   -3.2
H    -7.2    6.7    6.4
I     8.3    7.3   -4.0
H     8.7   -3.3    7.2
H    -3.8   10.5    3.7
N     4.9   -0.2  -10.7
N     4.6    3.7   10.2
I    10.1    3.2   -5.3
H     9.7   -6.4    1.7
H    -7.7   -8.8    1.5
H     5.4   -8.0   -6.8
N    -3.2   10.5    4.5
C    -7.3   -4.7   -8.0
C    -8.3   -3.4    7.9
N    -8.2   -3.5   -7.9
H     5.7    1.9   10.3
C     6.0   -1.0  -10.2
I     1.0   10.7    5.2
I     5.9    6.8   -7.8
H    -2.2  -10.9    4.4
H    -7.7    5.7   -7.2
H    11.3    3.0    2.4
H     0.8    8.2   -8.8
P     5.6   -2.2   10.4
H    -9.2   -7.3    2.6
H     4.2    9.7    5.8
P    -3.2    5.0  -10.5
I     5.2   10.5   -2.6
H    -7.9   -5.4    7.4
P    10.1   -6.0   -2.6
H     1.0   -1.4   12.0
I    10.0    6.8    0.1
H   -11.3    0.2    4.4
I    -7.6   -7.8   -5.3
H    -9.2   -3.3    7.2
P    -7.9    8.8    2.6
I    -0.6   -7.7   -9.4
H    -7.6   -8.9    3.3
I    -0.8   -3.8   11.5
I    -9.6    3.8    6.4
N     9.6   -7.0    2.5
H    -5.2    3.3   10.5
H    -4.7    9.7    5.8
H    -8.0   -2.9   -8.8
H     0.7    1.0   12.2
H     6.2    9.5    4.4
H    -6.7    6.5    7.9
H     5.1   10.5    3.7
H     8.6   -3.7   -7.9
H    -6.4    6.6   -8.1
I   -10.3   -0.1   -6.6
I     2.9   10.1   -6.3
H    -8.0    5.7    7.4
P   -12.2    1.4   -0.0
H    -4.2    4.7   10.5
H     9.9   -6.5    3.4
H    -6.6   10.1   -2.5
H     5.9   -2.0  -10.6
I    -3.4  -11.6   -2.6
H    -2.5   11.2    4.4
I    11.9    3.0   -1.0
H   -11.4   -1.5    4.4
N    -7.5    6.6    7.4
P     1.2   -9.6    7.8
H    -4.1   -0.2  -11.8
H     4.7    4.7   10.5
N     1.7  -12.0   -3.1
H    -4.2   -7.3    9.2
C     5.8    2.9   10.7
P    -3.1   -6.1  -10.5
H    -3.1    2.9   11.8
H     1.1   12.2   -2.7
I     3.9  -11.8    1.6
P     1.3   -9.7   -7.9
H     9.9   -2.9   -7.1
H     2.6  -12.0   -2.5
H     0.5    3.6  -12.0
H    -8.0    9.2   -3.1
I     1.2  -11.4    5.2
C    -4.0   10.5    5.8
H    -9.2   -3.7   -7.9
H     2.0  -11.8   -4.1
H     6.6   -9.0   -6.1
H     4.7   -7.3    9.2
H    -3.6  -11.6    3.7
C    -7.5    6.3   -8.0
H     6.9   -0.6  -10.6
H     4.8   -0.2  -11.8
