         400
 sphere cut out from bulk 
I     1.2    1.3    1.0
H    -2.0   -0.5    1.3
I    -2.4   -0.3   -1.2
P    -0.5    2.3   -1.6
H    -1.0   -1.2    2.5
H     0.5   -2.3   -1.8
N    -2.0   -1.0    2.2
H    -2.5   -1.9    2.1
C     1.2   -2.8   -2.4
I     1.4    0.7   -3.6
H     2.6   -2.8   -0.8
H    -2.1    0.8    3.3
H     1.8   -2.1   -3.0
C    -2.7   -0.1    3.2
I     1.0   -2.7    3.1
N     2.1   -3.5   -1.4
P     3.2   -0.3    2.9
H     1.5    3.7    1.9
H     1.6   -4.2   -0.8
I    -2.4    4.1    0.4
H    -3.7    0.1    2.9
H     0.8   -3.6   -3.0
H     4.6    1.1   -1.3
I     4.6   -1.8    0.4
H    -2.6   -0.6    4.2
I    -2.8   -4.2    1.0
H     3.6    3.2   -2.1
H    -1.3   -1.0   -5.0
H     2.9   -4.0   -1.9
P    -4.2   -2.9   -1.6
I     1.4    4.8   -1.9
H    -4.8    1.8   -1.6
N     1.6    4.7    2.2
H    -2.1    0.6   -5.0
H     0.8    5.2    1.8
C     5.2    2.0   -1.3
I    -2.2    3.4   -4.1
C    -2.2   -0.5   -5.3
H     5.2    2.6   -0.3
I     1.7    1.0    5.5
I    -2.0   -4.2   -3.5
N     4.6    2.9   -2.3
H    -3.1   -0.9   -5.0
H     2.5    5.1    1.8
H     0.7    4.3    4.1
H     4.6    2.5   -3.3
C     1.6    4.7    3.7
I     5.2    2.1    2.8
H     2.4    4.2    4.1
C    -5.8    2.0   -1.3
P    -0.5   -5.6    2.9
H    -5.8    2.6   -0.3
H     0.9   -2.7    5.8
I    -2.1    3.5    5.0
I     1.3   -6.4    0.4
H    -2.0    6.2   -0.8
H    -6.4    1.1   -1.3
H     6.2    1.8   -1.6
I    -6.4   -1.8    0.4
H    -0.7    6.4   -1.9
H     1.0    4.6   -4.8
I    -5.8    2.1    2.8
I     5.2   -1.6   -4.1
H     5.1    3.8   -2.4
P     3.1   -0.3   -6.1
H     1.4   -1.4    6.6
P    -4.1    4.8    2.9
I     1.5   -3.1   -6.2
H     4.4   -5.2    1.8
N     0.9   -2.3    6.7
N    -2.2   -0.5   -6.8
H     1.7    5.8    4.0
N    -1.5    6.9   -1.4
H    -0.1   -2.1    6.9
I    -5.8   -1.6   -4.1
H    -1.3   -0.1   -7.2
I     5.1   -1.9    5.0
H    -2.3   -6.6   -2.4
I    -2.3   -4.6    5.4
N    -6.5    2.9   -2.3
H    -5.9    3.8   -2.4
H    -4.9   -5.4    1.8
I    -2.2   -0.4    7.2
P     6.8   -2.9   -1.6
H    -2.2   -1.5   -7.2
H    -6.5    2.5   -3.3
H    -1.0    7.6   -0.8
H     4.5    1.6    6.1
I     5.1   -5.6   -1.9
P    -0.5    2.3    7.4
H    -2.9    0.0   -7.2
H     1.2    3.4   -6.9
I     4.6    6.2    1.0
C     1.0    5.1   -5.8
H     7.3    0.1    2.9
I    -5.9   -1.9    5.0
I     4.7    2.5   -5.9
H    -2.8    6.9   -3.0
N     5.2   -5.8    2.2
H    -0.0    5.3   -6.1
H     5.3   -4.7    4.0
H     2.7    4.1   -6.6
I     0.9    1.0   -8.1
H    -2.2   -7.9   -0.3
N     1.7    4.3   -6.8
I     1.4   -7.0   -4.1
P    -0.5   -5.5   -6.1
C    -2.4    7.6   -2.4
H     6.1   -5.4    1.8
P    -7.8   -0.3    2.9
N    -2.8   -7.5   -2.3
H    -7.4    3.2   -2.1
P     3.2    7.6   -1.6
I    -6.0   -5.6   -1.9
H    -5.7   -4.7    4.0
H    -3.8   -7.3   -2.1
H    -4.4    1.2    7.2
N    -5.8   -5.8    2.2
C     1.5   -3.2    7.7
H     1.5    6.1   -5.7
H     4.3   -6.1    4.1
H     2.6   -3.4    7.4
C     5.2   -5.7    3.7
H    -6.6   -5.2    1.8
I     1.6   -6.9    5.0
I     8.6   -0.3   -1.2
C     5.0    2.4    6.7
H     5.1   -6.8    1.9
H    -5.4    3.1    6.1
I    -2.6    7.7    3.1
I     1.0    8.7    0.4
H     3.6   -5.1   -6.1
C    -2.2   -8.4   -1.3
H     5.6    3.1    6.1
H    -1.2   -8.6   -1.6
H     5.1   -4.3   -5.7
H     1.0   -4.1    7.8
H     4.6   -5.8   -4.8
H     4.2    2.9    7.3
P     3.1   -8.2   -1.6
H    -8.4   -2.8   -0.8
P    -4.2    4.9   -6.1
P     6.9    4.8    2.9
H    -3.1    8.2   -1.8
C    -5.8   -5.7    3.7
C     8.4   -0.1    3.2
I     5.4    6.2   -3.5
I    -6.4    6.2    1.0
H    -5.0   -6.3    4.1
H    -1.8    8.3   -3.0
H     8.6   -1.9    2.1
I    -2.2   -8.3    2.8
H    -6.5    1.6    6.1
H    -2.9   -7.9   -3.3
P    -4.2   -3.0    7.4
I    -6.4    2.5   -5.9
C     4.6   -5.3   -5.8
H     9.0   -0.5    1.3
I    -5.7    6.2   -3.5
H    -5.9   -6.8    1.9
H     1.5   -2.7    8.7
H     1.7    4.7   -7.8
H    -8.2   -4.0   -1.9
H    -5.9   -4.3   -5.7
I     8.2   -4.2    1.0
I    -2.5   -3.9   -8.1
C    -6.0    2.4    6.7
I     1.3    4.9    7.8
N     9.0   -1.0    2.2
N    -5.1    1.7    7.7
H     8.4   -0.6    4.2
H     7.9   -0.9   -5.0
I     5.1    5.9    5.4
H     8.9    0.8    3.3
I     8.7    4.1    0.4
H     6.1   -6.3    4.1
N    -8.9   -3.5   -1.4
I    -2.8    3.5   -8.6
H    -1.8   -7.4    6.1
H    -4.6    2.4    8.3
N     5.9    1.7    7.7
H    -2.8   -9.3   -1.3
I     1.6    8.8   -4.1
H     6.6    1.2    7.2
H     1.4   -2.6   -9.4
H    -9.2   -2.1   -3.0
H     5.4    1.0    8.2
I    -2.1    7.4   -6.2
H    -6.4   -5.8   -4.8
I    -5.9    5.9    5.4
I    -9.8    1.3    1.0
P    -7.9   -0.3   -6.1
H    -2.7    7.7    5.8
H    -6.7   -6.1    4.1
I     4.9   -1.1   -8.6
I     1.5    8.6    5.0
H    -5.6    1.0    8.2
H    -8.5    5.1    1.8
H     4.9    8.6    2.1
I     1.0    1.0   10.0
C    -6.4   -5.3   -5.8
H     1.5   -9.6    3.3
I     8.8    3.4   -4.1
I    -2.7   -7.9   -5.9
H     8.9    0.6   -5.0
H    -1.1    7.0    7.4
H    -4.7   -6.4   -6.6
H    -9.4   -4.2   -0.8
I    -9.7    0.7   -3.6
I     4.8   -9.1    1.0
C     8.9   -0.5   -5.3
H    -8.6    4.2    4.1
H    -9.5    3.7    1.9
H    -6.8    2.9    7.3
H    -2.7    6.3    7.8
H    10.0   -1.2    2.5
I    -2.7    3.4    9.5
H     7.2   -7.3   -2.1
P     6.9    4.9   -6.1
C    -9.8   -2.8   -2.4
I     9.0   -4.2   -3.5
P     6.8   -3.0    7.4
P    -0.4   10.1    2.9
N     5.3   -6.2   -6.8
I    -6.1   -1.1   -8.6
H    -4.6    9.3    2.5
H    -6.1    8.6    2.1
H     6.4    2.4    8.3
I     4.9   -5.5    7.8
C    -2.4   -8.1    6.7
N    -9.4    4.7    2.2
I     5.0   -1.2    9.5
H    -0.1  -10.4    2.9
C    -2.1    7.2    7.7
I     1.2  -10.7   -1.2
N    -5.7   -6.2   -6.8
I   -10.0   -2.7    3.1
H     8.1    0.0   -7.2
P    10.5    2.3   -1.6
I     9.0    3.5    5.0
I    -9.3    1.0    5.5
N    -2.7    8.1    6.7
I    -9.6    4.8   -1.9
H    -3.2   -7.5    7.3
C     1.4   -3.1  -10.4
H    -7.4   -5.1   -6.1
P    -0.5    2.4  -10.7
H   -10.6   -2.3   -1.8
H    -1.2   -0.2   10.9
H     9.7   -1.0   -5.0
H     5.3   -5.7   -7.8
P    -7.8    7.6   -1.6
P     3.2    7.4    7.4
H     9.0    6.2   -0.8
H     4.8   -7.1   -6.9
I    -2.5   -3.9   10.0
C     0.9  -10.5    3.2
I    -6.2   -9.1    1.0
H    -2.9   -8.8    6.1
H     6.3   -6.4   -6.6
H     8.2    6.9   -3.0
I     0.8   -6.9   -8.6
H     0.9   -4.1  -10.3
N     5.4    9.5    2.2
H     1.6  -11.0    1.3
I    -2.3   -0.4  -10.9
H    -4.7    2.4   -9.8
H     1.5   -9.9   -5.0
C    -9.4    4.7    3.7
H     8.7   -6.6   -2.4
N     8.9   -0.5   -6.8
H    -5.7   -5.7   -7.8
H     5.3    1.0   -9.8
N    -5.6    9.5    2.2
I     8.7   -4.6    5.4
H    -2.9   -0.1   10.9
H    -2.1   -1.6   10.9
H   -10.3   -3.6   -3.0
I    -6.0   -1.2    9.5
H    -0.2   -2.0  -11.1
I    -6.1   -5.5    7.8
N     8.2   -7.5   -2.3
I     8.8   -0.4    7.2
H     5.4    9.9    1.3
H    -8.4    4.1   -6.6
I     5.0   10.2   -1.2
H    -2.2    9.0    6.6
H     8.8   -1.5   -7.2
P     3.2   -8.1    7.4
H    -5.7    1.0   -9.8
H     2.5   -3.4  -10.7
H    -5.6    9.9    1.3
N    -2.1   -0.6   11.3
H     1.8    4.7   10.3
H    -3.7    8.4    6.9
H     7.9    8.2   -1.8
I     4.9    6.6   -8.1
I     1.2    5.0  -10.3
H     3.7   10.5    2.9
I     5.0   -9.7   -3.6
P    -8.0   -8.2   -1.6
H     6.4    9.3    2.5
H     4.3    9.5   -5.0
H    -1.0   -8.1    8.3
H   -10.2    5.2    1.8
N     0.8   -2.3  -11.4
H     1.3   -1.4  -11.5
H     1.0   11.6   -1.3
I    -9.8   -6.4    0.4
H    -6.2   -7.1   -6.9
H     4.8    9.8    4.2
H    -9.3    5.8    4.0
H    -4.9    9.4   -5.0
H     1.3    3.3   11.2
N    -1.5   -8.7    7.7
N     1.6  -11.4    2.2
H    -9.6   -1.4    6.6
H    -0.8   -9.3    7.2
C     8.6    7.6   -2.4
H    -8.5   -3.4    7.4
I    -9.5   -3.1   -6.2
I     0.9   -7.0    9.5
N    -5.2    1.7  -10.4
P    -0.5   10.1   -6.1
H     8.8   -7.9   -0.3
C     4.7   10.3    3.2
I     8.4    7.7    3.1
H    -2.1    7.8    8.7
H    11.5   -2.3   -1.8
P    -4.3   -2.9  -10.6
H     8.2   -7.9   -3.3
H     1.0  -11.1    4.2
N     9.5    6.9   -1.4
H    -4.5    1.2  -10.9
P   -11.6    2.3   -1.6
H     6.3    2.4   -9.8
P    -4.2  -10.8    2.9
I    -6.1   10.2   -1.2
I    -2.3   11.1   -3.6
H   -10.4    4.3    4.1
H   -10.1   -2.7    5.8
H     4.1    3.0  -10.8
I    -6.1   -9.7   -3.6
H   -10.0    4.6   -4.8
I    -2.4   11.8    1.0
N     5.8    1.7  -10.4
I    -6.2    6.6   -8.1
H     9.8   -0.1   -7.2
I     5.3   -9.4    5.5
H     2.6  -11.6    2.5
N     1.8    4.2   11.3
C     1.5  -10.9   -5.3
C     8.8   -8.4   -1.3
H    10.3    6.4   -1.9
P    10.5   -5.6    2.9
H     6.1    9.4   -5.0
I    -5.7   -9.4    5.5
I    12.2    1.3    1.0
I     8.5   -3.9   -8.1
H   -12.0   -1.2    2.5
N    -9.3    4.3   -6.8
N   -10.1   -2.3    6.7
I     1.6   -3.1   11.9
H    -6.3    9.8    4.2
H     0.5  -11.3   -5.0
H    -2.2    7.8   -9.4
H    -2.7    6.4  -10.3
P     3.2   -0.4   12.0
I     8.2    3.5   -8.6
I     8.8   -8.3    2.8
C     5.2   10.0   -5.3
H    -9.8    3.4   -6.9
H     8.2   -9.3   -1.3
H     2.7    4.0   11.5
C    -6.3   10.3    3.2
I    -2.8  -12.2    0.4
H     1.2  -12.3    2.1
H     5.2    8.9   -7.2
I     4.8   -5.4  -10.3
H    10.0    7.6   -0.8
I    -9.7   -7.0   -4.1
C     4.9    2.4  -11.4
H     0.8   -2.7  -12.3
C     1.6   12.5   -1.3
H     2.6   12.3   -1.6
C    -9.5   -3.2    7.7
H    -9.5    6.1   -5.7
H    -6.7    9.5   -5.0
H    11.8   -3.6   -3.0
C   -10.0    5.1   -5.8
C    -5.8   10.0   -5.3
H    -2.0   -9.4    8.2
H     8.3    7.7    5.8
H     0.7  -10.4   -7.2
I    12.0   -2.7    3.1
H     2.3  -11.5   -5.0
I    -9.5   -6.9    5.0
H    -1.1   -8.0   -9.8
I     1.6    1.1  -12.6
I     1.3    9.3   -8.6
