         400
 sphere cut out from bulk 
P    -0.9    0.0   -0.9
I     1.5    0.4    1.1
I    -0.4   -3.2   -1.0
I    -2.8   -0.4    1.8
I     0.9    0.4   -3.5
I    -1.6    3.2   -0.7
H    -1.5    1.6    2.9
H     3.2    1.9   -0.2
H    -1.3   -2.4    2.7
H     3.2   -2.4    0.6
H     2.0    3.0   -1.9
H     0.3    3.2    2.7
H     2.1   -3.7   -1.1
H     0.1   -3.2    3.1
N     3.7    2.3   -0.9
I    -3.5   -0.4   -2.8
H     3.9    1.6   -1.6
N    -1.4    2.4    3.6
H     3.9   -2.1   -0.9
N    -0.9   -3.2    3.1
H    -1.2    3.9    2.2
C    -0.6    3.5    3.0
C     3.8   -2.9   -0.2
C     2.9    3.4   -1.6
H    -0.9   -2.2   -4.1
H    -0.8    2.0    4.4
H    -4.2    2.7   -0.6
P     3.3   -0.0    3.7
H    -1.3   -4.0    2.7
N     3.0   -4.0   -0.8
H     2.8    4.2   -0.8
H    -4.1   -3.3    0.2
H    -2.3    2.7    4.0
H    -4.9   -2.1   -0.9
H    -4.9    1.6   -1.6
H     4.6    2.7   -0.6
I     2.7   -3.1    3.6
H     2.8   -4.7   -0.1
H    -0.9   -2.4    5.1
N    -5.1    2.3   -0.9
H    -0.6    2.0   -5.3
C    -1.3   -3.1   -4.6
H     4.7   -3.3    0.2
H     3.5    3.9   -2.4
C    -1.3   -3.2    4.6
I     0.8    0.4    5.7
H    -0.5    4.3    3.8
C    -5.0   -2.9   -0.2
H    -0.9   -4.0   -4.1
H     3.6   -4.4   -1.5
H    -5.6    1.9   -0.2
I     5.3   -0.4   -2.8
H    -2.4   -3.1   -4.5
H    -2.4   -3.2    4.6
H    -5.6   -2.4    0.6
I     6.0   -0.4    1.8
I     1.5    6.0    1.1
I     4.0    3.1    3.8
P     3.4   -0.0   -5.4
P    -1.1    6.3   -0.9
P    -1.1   -6.3   -0.9
H    -0.9    4.4   -4.8
H    -0.9   -4.1    5.0
P    -5.5   -0.0    3.7
C    -0.7    2.8   -6.1
I    -2.9   -5.8    1.7
H    -2.3    3.7   -5.2
N    -0.9   -3.1   -6.0
H     0.1   -3.1   -6.1
I    -4.8    3.1    3.8
I     1.5   -6.6    1.1
I     0.8    5.9   -3.5
N    -1.4    4.0   -5.5
H    -5.3    3.9   -2.4
C    -5.9    3.4   -1.6
I     2.7   -3.2   -5.6
H    -5.2   -4.4   -1.5
H    -1.3   -2.3   -6.5
N    -5.8   -4.0   -0.8
H     0.3    3.1   -6.4
I    -3.6   -0.5    6.3
I    -7.3    0.4    1.1
I     4.0    3.2   -5.4
H    -1.2    2.4   -6.9
H    -6.0    4.2   -0.8
I    -3.6   -5.9   -2.8
I     0.8   -6.7   -3.5
P    -5.4   -0.0   -5.4
H    -6.0   -4.7   -0.1
I    -2.9    6.8    1.7
H    -6.8    3.0   -1.9
H    -6.7   -3.7   -1.1
H    -1.3   -4.0   -6.5
I    -6.1   -3.1    3.6
I     7.2    3.2   -0.7
I    -4.8    3.2   -5.4
P     7.9    0.0   -0.9
I    -2.9   -0.5   -7.4
H    -1.5    4.7   -6.3
H     7.3    1.6    2.9
H     6.5    2.7    4.0
P     3.4    6.3    3.7
H     3.5    2.3    6.9
P     3.4   -6.3    3.7
I     5.2   -0.5    6.3
I    -3.6    6.8   -2.8
I     0.9    5.9    5.7
H     2.0    3.2    7.3
I     1.6    0.4   -8.1
H     7.5   -2.4    2.7
I     5.2   -5.9   -2.8
P    -1.1    0.0    8.3
H     2.8    7.9   -0.1
H     6.4   -3.1   -4.5
I     5.9   -5.8    1.7
H     6.4   -3.2    4.6
H     3.6   -2.0    7.6
N     7.4    2.4    3.6
I    -7.9    0.4   -3.5
C     3.1    3.2    7.4
H     2.1   -2.7    8.0
H     7.6    3.9    2.2
H     3.5    4.1    7.0
I    -0.4   -3.2    8.2
I    -6.1   -3.2   -5.6
H     7.5   -4.0    2.7
I     0.9   -6.8    5.7
H     2.8   -8.4   -0.8
P     3.3   -6.3   -5.4
I     5.2    6.8   -2.8
P     3.3    6.4   -5.4
I     8.4   -3.2   -1.0
H    -5.3    2.3    6.9
H    -1.2   -8.7    2.2
H     3.5    8.2   -1.5
H     6.5    3.7   -5.2
N     7.9   -3.2    3.1
H    -1.3    8.6    2.7
P    -5.4   -6.3    3.7
P    -5.4    6.3    3.7
I     5.9    6.8    1.7
H    -0.5   -8.3    3.8
N     3.0   -2.4    8.3
H     7.9   -2.2   -4.1
N     3.0    8.7   -0.8
I    -1.7    3.1    8.5
H     2.1    9.0   -1.1
I    -3.5   -5.9    6.3
H     8.0    2.0    4.4
C     7.5   -3.1   -4.6
C     7.5   -3.2    4.6
C     8.2    3.5    3.0
H    -5.2   -2.0    7.6
H    -8.5    3.2    2.7
I     5.9   -0.5   -7.4
I    -7.3    6.0    1.1
H    -0.8   -8.2   -4.8
I    -0.5    9.5   -1.0
C    -0.6   -9.1    3.0
H    -0.9    8.6   -4.1
H     2.9   -1.7    9.0
I    -1.6   -9.5   -0.7
H     7.9   -2.4    5.1
H    -5.3    4.1    7.0
H    -8.7   -3.2    3.1
H     7.9   -4.0   -4.1
H     3.6   -8.8   -2.4
P    -9.7    0.0   -0.9
C     3.0   -9.2   -1.6
H     3.1    2.4   -9.0
I    -9.2   -3.2   -1.0
H     0.4   -9.4    2.7
H     2.9   -1.7   -9.3
I    -2.8   -5.9   -7.3
I    -8.0    0.4    5.7
I    -3.5    6.7    6.3
H    -5.3    8.2   -1.5
C    -5.7    3.2    7.4
H     0.1    9.4    3.1
H    -1.0    8.5    5.0
I    -7.3   -6.6    1.1
H     3.8   -4.4    8.1
H    -6.0    7.9   -0.1
P     7.7    6.3   -0.9
P    -5.5   -6.3   -5.4
H     3.1   -4.0   -8.6
H     8.9   -3.2    3.1
H     8.2    2.0   -5.3
N    -0.9    9.4    3.1
H     2.0   -9.6   -1.9
N     3.4    3.2    8.8
P     7.7   -6.3   -0.9
P    -5.5    6.4   -5.4
I     1.5    5.8   -8.0
H     9.1    3.2    2.7
N     7.4    4.0   -5.5
H     3.0    2.3    9.3
H     8.3    4.3    3.8
P    -1.1    0.0  -10.0
I     5.3   -5.9    6.3
H     7.5   -2.3   -6.5
H     7.9   -4.1    5.0
H    -1.5   -8.0   -6.3
H    -4.1    9.4    0.2
H     7.9    4.4   -4.8
C     3.7   -3.6    8.9
H     3.0    4.0   -9.0
I     1.6    0.4   10.2
I     9.7    0.4   -3.5
P    -1.0    6.3    8.2
I    -2.9    6.7   -7.3
N    -1.4   -8.7   -5.5
H    -6.0   -8.4   -0.8
I    10.3    0.4    1.1
N     7.9   -3.1   -6.0
N    -5.8   -2.4    8.3
P    -1.0   -6.4    8.2
H    -4.3    3.2    8.9
I    -1.7    3.2   -9.8
N    -5.8    8.7   -0.8
C     3.7    9.8   -0.2
H    -5.0   -4.4    8.1
H    -4.1   -3.3   -9.1
H    -6.8    3.2    7.3
I     2.7    9.5    3.6
H     7.6    2.4   -6.9
H     4.7    9.4    0.2
H    -5.2   -8.8   -2.4
H     4.5    3.2    8.9
C     8.1    2.8   -6.1
C    -9.4    3.5    3.0
C    -1.4    9.4    4.6
I    -0.4   -3.1  -10.1
I    -8.0    5.9   -3.5
N     3.5    3.2   -9.5
H     3.0    4.0    9.3
H    -4.1   -3.3    9.2
H    -2.3   -9.0   -5.2
I     5.3    6.7    6.3
I     1.5   -6.8   -8.0
H     7.3    4.7   -6.3
C    -1.3    9.5   -4.6
H     3.1   10.2    0.6
H     7.5   -4.0   -6.5
N     3.0   -2.4  -10.0
N    -9.7   -3.2    3.1
H   -10.1   -2.4    2.7
H    -1.3   10.3    2.7
C     3.7   -3.6   -9.4
H     4.7   -3.3   -9.1
H    -9.6    2.0    4.4
H    -2.4    9.4    4.6
H    -9.7   -2.2   -4.1
H    -6.7   -2.7    8.0
H    -4.3    3.2   -9.4
H    -4.1  -10.0   -0.6
N    -5.4    3.2    8.8
H    -2.4    9.5   -4.5
C    -5.1   -3.6    8.9
H     2.1   -2.7  -10.3
H     4.7   -3.3    9.2
H   -10.3    1.6    2.9
H     4.5    3.2   -9.4
I    -7.2    0.4   -8.1
H    -1.3    8.6   -6.5
I   -10.4    3.2   -0.7
H    -9.4    2.0   -5.3
H    -5.7    2.4   -9.0
H    -2.3  -10.0    4.0
H    -5.9   -1.7    9.0
N    -1.3  -10.3    3.6
H     3.1   -4.0    9.7
H    -9.3    4.3    3.8
I     4.0   -9.5    3.8
H   -10.0    3.9    2.2
C    -5.8   -9.2   -1.6
C    -5.1    9.8   -0.2
N     3.7  -10.3   -0.9
H    -5.7   -4.0   -8.6
I    -8.0   -6.7   -3.5
H     4.7  -10.0   -0.6
N   -10.2    2.4    3.6
H    -8.7   -3.1   -6.1
H    -8.5    3.1   -6.4
H    -5.9   -1.7   -9.3
I     9.6    0.4    5.7
I     6.0   -5.9   -7.3
H    -5.7    2.3    9.3
H    -9.7   -2.4    5.1
H   -10.1   -4.0    2.7
H     3.2  -10.8   -0.2
H     8.9   -3.1   -6.1
H    -0.9   10.4   -4.1
H    -9.7   -4.0   -4.1
H     3.9   10.5   -0.9
C    -5.1   -3.6   -9.4
H    -6.7    9.0   -1.1
N    -0.9    9.5   -6.0
H     0.1    9.5   -6.1
I    -4.8   -9.5    3.8
P     7.7    0.0    8.3
I    -2.9   -0.5   10.9
N    -5.3    3.2   -9.5
I     2.7    9.5   -5.6
H    10.8    3.0   -1.9
I    -7.9    5.9    5.7
H    -5.8    4.0   -9.0
H    -1.5  -11.0    2.9
I     7.1    3.1    8.5
H     3.6   -2.0  -10.8
H     0.3   -9.5   -6.4
H    -0.9   10.3    5.1
N    -5.0  -10.3   -0.9
C   -10.1   -3.1   -4.6
H    10.9   -3.7   -1.1
H     3.5   -8.5    7.0
H     9.1    3.1   -6.4
C   -10.1   -3.2    4.6
C    -9.5    2.8   -6.1
I     4.0   -9.5   -5.4
H    -0.8  -10.7    4.4
C    -0.6   -9.9   -6.1
I     5.9    6.7   -7.3
H    -9.7    4.4   -4.8
H     2.0    3.2  -11.0
H    -4.9   10.5   -0.9
H    -5.8    4.0    9.3
H    -5.7   10.2    0.6
H     7.4    8.6    2.7
H    -9.7   -4.1    5.0
H    -1.3    2.3   11.4
H     3.8   -4.3  -10.2
I   -11.6   -0.4    1.8
I     9.6    5.9   -3.5
H     7.6   -8.7    2.2
N    -5.8   -2.4  -10.0
P    -9.9   -6.3   -0.9
P    -9.9    6.3   -0.9
C     3.1    3.2  -10.9
H    -0.5  -10.6   -5.3
H     4.0  -11.1   -1.6
N    -9.7   -3.1   -6.0
I    -7.9   -6.8    5.7
I    -6.1    9.5    3.6
I     1.5    5.8   10.3
I    -4.8   -9.5   -5.4
H    -6.8   -9.6   -1.9
I     7.2   -9.5   -0.7
H    -5.7   -4.0    9.7
I    10.3    6.0    1.1
P    -1.0    6.3  -10.1
P    -1.0   -6.4  -10.1
H    -1.3   -2.3   11.8
H   -11.1    2.7    4.0
H     2.0   -9.4    7.3
H    -5.2   -2.0  -10.8
H    12.0    1.9   -0.2
H    -5.6  -10.8   -0.2
I     8.4   -3.2    8.2
H     3.5    2.4  -11.4
H    -5.0   -4.3  -10.2
H    -4.8  -11.1   -1.6
H     3.8    8.3    8.1
H    -5.3   -8.5    7.0
I     9.6   -6.7   -3.5
H     6.5   -9.0   -5.2
H    12.0   -2.4    0.6
N   -10.2    4.0   -5.5
H   -10.1   -2.3   -6.5
H     6.4    9.4    4.6
H    -1.3   10.3   -6.5
H     0.3    3.1   11.9
I    10.3   -6.6    1.1
H     6.4    9.5   -4.5
H    11.6    4.2   -0.8
C    11.7    3.4   -1.6
I    -7.3    5.8   -8.0
H     8.3   -8.3    3.8
I     1.6  -12.2    1.1
H     7.9    8.6   -4.1
C     3.1   -9.4    7.4
H     8.0   -8.2   -4.8
H   -10.0    2.4   -6.9
I     1.5   -6.8   10.3
I    11.5   -3.1    3.6
H    -1.2  -10.3   -6.9
I     5.9   -0.5   10.9
H     7.3   -8.0   -6.3
I    -7.2    0.4   10.2
H   -11.2   -3.1   -4.5
I     7.1    3.2   -9.8
N    11.8   -4.0   -0.8
H    11.6   -4.7   -0.1
I    -3.6   -0.4  -12.0
H     6.5  -10.0    4.0
H    -1.3   -4.0   11.8
H   -11.2   -3.2    4.6
I    -0.5    9.5    8.2
C    -0.7    2.7   12.2
H     3.5    4.2  -11.3
