         400
 sphere cut out from bulk 
P    -0.2   -0.1    0.6
I     0.9    2.1   -1.5
I     0.9   -2.1   -1.6
I    -2.7    0.1   -1.5
I     2.2    0.0    2.7
P    -0.3    0.0   -3.6
I    -1.5   -2.1    2.7
I    -1.5    2.2    2.7
H    -3.8    2.0   -0.4
H     3.2    2.9   -0.1
H     3.8    1.7    1.2
H    -3.3    2.8    1.0
H     0.3   -4.4   -0.1
H    -1.1   -4.4    1.1
P    -0.2   -0.0    4.8
C     3.9    2.7    0.8
N    -4.0    2.8    0.2
C    -0.6   -5.0    0.4
H     3.4   -3.1   -2.6
H    -3.8    3.7   -0.3
H     3.8    3.5    1.5
H    -1.3   -5.3   -0.4
H     0.7    4.7   -2.7
H     4.5   -1.7   -2.6
H    -4.8   -1.7   -2.6
H    -1.1    5.0   -2.7
H    -5.5    1.7    1.2
H     5.5    2.0   -0.4
C     4.4   -2.7   -3.0
H    -4.1   -3.4   -2.7
H    -1.2    4.3    3.9
H     4.2   -1.7    4.0
N     5.3    2.8    0.2
C    -5.4    2.7    0.8
I     2.1   -0.2   -5.7
C    -0.1    5.4   -3.1
H     0.8   -6.0    1.6
I    -1.3    2.2   -5.7
I    -1.7   -2.0   -5.7
N    -0.0   -6.2    1.0
H    -3.9   -3.0    3.9
H     3.6   -3.4    4.0
H     3.7   -2.0   -4.8
C    -4.9   -2.7   -3.0
H    -0.5    4.4   -4.9
H     5.5    3.7   -0.3
H     1.0    5.1    4.1
H    -5.1   -1.7    4.0
H     6.0    2.8    1.0
H    -5.5    3.5    1.5
H    -6.0    2.9   -0.1
H     5.2   -3.4   -2.7
C     4.4   -2.7    4.3
I     6.6    0.1   -1.5
N     4.3   -2.7   -4.5
H    -4.0   -2.5   -4.9
H     0.4   -6.8    0.2
N    -1.1    5.2    4.4
H     0.1    6.4   -2.7
H    -0.8   -6.8    1.5
N    -0.2    5.3   -4.6
C    -4.9   -2.7    4.3
I    -3.6    5.9   -1.5
H    -5.9   -3.1   -2.6
H    -1.3    6.0    3.8
N    -5.0   -2.7   -4.5
I     3.1   -6.0    2.7
H     4.0   -3.7   -4.8
C     0.3    5.3    5.0
I     1.1    2.1    6.9
I    -3.7   -6.1   -1.5
I     1.1   -2.1    6.9
H     5.4   -3.0    3.9
H     0.4    4.5    5.7
I    -2.6    0.0    6.9
I     3.3    6.0    2.8
H     0.8    5.5   -5.0
H     3.5   -2.5    6.2
H     5.3   -2.5   -4.9
I    -7.1    0.0    2.7
H    -1.8    5.3    5.2
H    -5.6   -2.0   -4.8
H    -5.7   -3.4    4.0
H    -4.2   -1.9    6.2
P    -0.3   -0.0   -7.8
N     4.4   -2.7    5.8
H    -0.8    6.1   -4.9
N    -4.8   -2.7    5.8
H    -5.3   -3.7   -4.8
H     5.1   -1.9    6.2
H     4.0    1.7   -7.0
H    -1.0   -4.5   -6.8
H     0.5    6.3    5.4
I     5.7    5.9   -1.5
I     5.6   -6.1   -1.5
I     1.9   -8.1   -1.4
H    -4.5   -3.6    6.2
I     2.1    8.1   -1.4
H    -4.0    2.9   -7.0
H     3.6    3.4   -7.0
I     7.8   -2.1    2.7
I     7.8    2.2    2.7
H     4.8   -3.6    6.2
H     0.6   -5.4   -6.7
I    -8.4    2.1   -1.5
H     3.5    2.5    7.6
I    -8.4   -2.1   -1.6
I    -2.3    8.1    2.7
I     3.2   -5.9   -5.7
H    -5.8   -2.5    6.2
I     3.1    6.1   -5.7
H    -5.2    1.7   -7.0
H    -4.2    1.9    7.6
C     4.3    2.7   -7.3
I    -5.9    6.0    2.8
I    -2.5   -8.1    2.7
C    -0.2   -5.0   -7.4
P    -0.1   -0.0    9.0
I    -6.2   -6.0    2.7
P     9.1   -0.1    0.6
I    -7.2   -0.2   -5.7
P     4.3   -8.1    0.6
C    -5.0    2.7   -7.3
H     0.2   -4.4   -8.1
H     5.3    2.9   -7.0
P     4.6    8.1    0.6
H     5.1    1.9    7.6
H     0.6    9.3    0.2
P    -4.7    8.1    0.6
H     8.2   -4.4    1.1
P    -9.5   -0.1    0.6
P    -4.9   -8.1    0.6
N     4.5    2.7    8.0
H    -4.5    3.6    7.6
H    -0.5    9.4    1.5
H     8.0   -5.3   -0.4
H    -5.7    3.4   -7.0
I     6.7    0.0    6.9
P     9.0    0.0   -3.6
I     7.6   -2.0   -5.7
N    -4.8    2.7    8.0
H     0.4   -4.4    8.7
H     4.8    3.6    7.6
I    -3.6    5.9    6.8
P     4.3   -8.1   -3.6
P     4.5    8.1   -3.6
I    -3.7   -6.0    6.9
H    -5.8    2.5    7.6
H     8.1    4.3    3.9
H     8.2    5.0   -2.7
N     0.2   10.0    1.0
P    -4.8    8.1   -3.6
I     7.9    2.2   -5.7
H    -9.0   -4.4   -0.1
C     8.7   -5.0    0.4
I    -2.4    7.9   -5.8
H     3.3    2.5   -9.2
H    -1.4   -5.9    8.1
I     0.9   -2.1   -9.9
I     1.0    2.1   -9.9
H    -1.2   -6.9   -7.4
N     4.3    2.7   -8.8
H    -0.1   -9.8   -2.7
H    -8.6    4.7   -2.7
I    -6.1   -5.9   -5.7
P    -5.0   -8.1   -3.6
N    -0.8   -6.2   -8.1
P    -9.6    0.0   -3.6
P     4.2   -8.0    4.8
I    -2.8    0.0   -9.9
P     9.1   -0.0    4.8
H    -4.4    1.9   -9.2
H     1.0   10.2    1.6
I    -6.2    6.1   -5.7
N    -5.0    2.7   -8.8
I    -2.6   -8.3   -5.8
P     4.4    8.2    4.8
I    10.2   -2.1   -1.6
I    10.2    2.1   -1.5
H     9.6   -4.4   -0.1
H    -8.5   -6.0    1.6
H     0.1   -6.7    8.2
H     7.5    5.3    5.2
H    -8.3    5.1    4.1
H     4.9    1.9   -9.2
P    -5.1   -8.0    4.8
P    -9.5   -0.0    4.8
P    -4.8    8.2    4.8
C    -0.0   -5.0    9.4
H    -1.5   -5.9   -8.7
I     5.7    5.9    6.8
N     8.2    5.2    4.4
H     8.0    6.0    3.8
N    -0.6   -6.2    8.7
I     5.6   -6.0    6.9
I     1.9   -8.0    7.0
I    -3.5   10.1   -1.5
H     4.2    1.7    9.8
C     4.5    2.7    9.5
H    -4.6    3.6   -9.2
I    -8.2    2.1    6.9
H     4.7    3.6   -9.2
H    -3.8    2.9    9.8
I     6.8   -8.1    2.7
I    -7.2    8.1   -1.4
I    -8.2   -2.1    6.9
C    -4.8    2.7    9.5
H    -0.0   -6.7   -8.7
I     2.1    8.2    7.0
H    -1.5  -10.2    3.8
I     3.1  -10.2    2.8
H     8.8    4.4   -4.9
H    -0.8   -4.5   10.0
H     8.5   -6.8    1.5
H    -1.1   10.9   -0.4
I     7.0    8.1    2.7
C     9.2    5.4   -3.1
I     3.3   10.2    2.7
C    -9.9   -5.0    0.4
I    -3.8  -10.3   -1.5
H     3.8    3.4    9.8
I    -7.4   -8.1   -1.4
H    -5.1    1.7    9.8
N     9.3   -6.2    1.0
C    -0.4   11.2    0.4
H    -5.9    2.5   -9.2
H    -8.9   -6.8    0.2
N    -9.3   -6.2    1.0
C    -0.3  -10.8   -3.1
H     0.3   -9.9    5.4
C    -9.4    5.4   -3.1
I   -10.7   -2.1    2.7
H   -10.3   -4.4    1.1
I   -10.8    2.2    2.7
H    -1.1  -10.1   -4.9
H    -8.5    5.5   -5.0
I     2.3   -0.2   11.1
H    10.0    4.7   -2.7
I    -1.2    2.2   11.1
I    -1.6   -2.0   11.1
H     3.3   -2.5  -10.6
H     0.7   -5.4   10.1
H    -8.8    4.5    5.7
N     9.1    5.3   -4.6
H     8.4    6.1   -4.9
C    -9.0    5.3    5.0
H    -9.2    6.4   -2.7
H    -1.3  -11.2   -2.7
H     5.5    2.9    9.8
H     9.4    6.4   -2.7
H    -4.4   -2.0  -10.6
H     8.3   -4.5   -6.8
H    -1.0   -6.9    9.4
I     5.8   10.1   -1.5
I     5.5  -10.3   -1.5
H     0.5   11.8   -0.1
N    -0.4  -10.8   -4.6
H     0.5  -10.7   -5.0
I    11.5    0.0    2.7
H    -5.5    3.4    9.8
N    -9.5    5.3   -4.6
H    10.0   -6.0    1.6
H   -10.6   -5.3   -0.4
H     0.5  -11.5   -2.7
H    -9.8    4.4   -4.9
I     6.5    0.0   -9.9
H     0.8  -11.1    4.1
H     9.7   -6.8    0.2
H   -10.4    5.0   -2.7
H    -0.8   11.8    1.1
H     4.9   -2.0  -10.6
P     9.0   -0.0   -7.8
N    -1.3  -11.0    4.4
H    -0.9    9.3   -7.4
C     0.1  -10.9    5.0
H     0.3    4.5  -11.1
I     2.9  -10.1   -5.7
I     6.9    7.9   -5.8
P     4.2   -8.1   -7.8
P    -0.3   -0.0  -12.0
P     4.4    8.0   -7.8
H   -10.5    4.3    3.9
C     9.6    5.3    5.0
I   -12.0    0.1   -1.5
N     4.3   -2.7  -11.0
H    -8.8    6.3    5.4
I    -6.0   10.2    2.7
H     4.6   -3.6  -10.6
H    -4.7   -3.6  -10.6
I     6.7   -8.3   -5.8
H     9.7    4.5    5.7
I    -3.9   -6.0   -9.9
I    -3.8    5.9  -10.0
I    -6.2  -10.2    2.8
H   -10.0   -6.8    1.5
I     3.4   10.3   -5.7
P    -4.9    8.0   -7.8
H    10.3    5.1    4.1
H    -8.7   -5.4   -6.7
H    -2.0  -10.9    5.2
I   -10.6    2.2   -5.7
P    -9.6   -0.0   -7.8
N    -5.0   -2.7  -11.0
P    -5.1   -8.1   -7.8
N   -10.4    5.2    4.4
H    -6.0   -2.5  -10.6
H    10.0    5.5   -5.0
H     0.3    9.5    8.2
I   -11.0   -2.0   -5.7
H    -1.4  -11.9    3.9
I    10.4   -2.1    6.9
I    10.4    2.1    6.9
H    -0.4    4.4   11.9
H   -10.6    6.0    3.8
H     3.8   -2.0   12.0
H     0.8   10.8   -6.7
C     9.1   -5.0   -7.4
I    11.4   -0.2   -5.7
I     5.4   -6.0   -9.9
H     7.9   -5.9    8.1
H    -8.7    9.3    0.2
H    -0.7  -11.8   -4.9
I     1.7   -8.0   -9.8
H   -10.1    6.1   -4.9
H    -3.9   -2.5   11.9
H     9.8    6.3    5.4
I    -3.5   10.2    6.9
I     5.5    5.9  -10.0
H     0.2    9.5   -8.7
P     9.1   -0.0    9.0
N    -0.6   10.0   -8.1
H    12.5    2.9   -0.1
H    -1.9    5.3  -11.6
P     4.3   -8.1    9.0
H   -12.6    2.8    1.0
P     4.5    8.1    9.0
I     1.9    8.2   -9.8
I    -3.8  -10.3    6.8
H    -9.1   -4.4   -8.1
I    -7.2    8.2    7.0
H     8.7    9.4    1.5
I    -7.4   -8.0    7.0
H     8.1   -6.9   -7.4
C     0.2    5.3  -11.8
H     0.2  -11.6    5.7
P    -4.8    8.1    9.0
C    -9.5   -5.0   -7.4
H     0.3    6.3  -11.4
I     3.4   -5.9   11.1
P    -9.4   -0.0    9.0
I     3.2    6.1   11.1
I    -8.3    2.1   -9.9
H     7.7   -5.9   -8.7
H     9.9   -5.4   -6.7
H    -4.0  -12.5   -0.3
I    -5.8   10.3   -5.7
H     0.9    5.5   11.8
H    -1.2   10.3    8.1
I    -7.0   -0.2   11.1
I    -8.4   -2.1   -9.9
P    -5.0   -8.1    9.0
H   -10.3   -4.5   -6.8
H    -8.9   -4.4    8.7
H     4.2   -3.7   12.0
P    -0.1    0.0   13.2
H   -13.1    2.0   -0.4
H    -8.3   10.2    1.6
N    -0.4   10.0    8.7
H    13.1    1.7    1.2
H    -0.8    9.3    9.4
H     9.5   -4.4   -8.1
I    -6.4  -10.1   -5.7
H     3.6  -12.7    1.5
N     8.5   -6.2   -8.1
H   -11.1    5.3    5.2
H    12.7   -3.1   -2.6
H    -5.5   -2.0   12.0
H     5.4   -2.5   11.9
H    -0.7    6.1   11.9
N    -0.0    5.3   12.2
H     7.8  -10.2    3.8
C     0.0   11.2   -7.4
N     4.5   -2.7   12.3
C     4.2   -2.7  -12.5
N    -1.2    5.2  -12.4
I     5.4  -10.3    6.8
C    13.2    2.7    0.8
N    -4.8   -2.7   12.3
H     5.2  -12.5   -0.3
N    -9.1   10.0    1.0
H    -5.1   -3.7   12.0
H    -1.3   10.2   -8.7
H    -0.8   11.7   -6.8
H     4.0   -1.7  -12.8
N   -13.3    2.8    0.2
H     9.9    9.3    0.2
H    13.1    3.5    1.5
I     5.8   10.2    6.9
H   -13.1    3.7   -0.3
H    -3.9   12.8   -2.7
