         400
 sphere cut out from bulk 
H    -0.2    1.2    0.0
H     0.7   -0.6   -1.3
N    -0.2    1.3   -1.0
C     0.9    0.5   -1.6
H    -1.2    1.0   -1.3
H     1.8    0.9   -1.2
H    -0.2    2.3   -1.3
I    -1.3    0.6    2.3
H     0.8    0.5   -2.7
I     2.6   -2.5    0.1
I    -2.0   -3.0   -0.3
H    -0.3   -1.9    3.4
H     1.0   -2.9    2.6
I    -3.8    0.9   -1.3
P    -3.9   -1.0    1.4
I     3.2    1.2    2.7
C     0.2   -2.9    3.4
H    -2.9   -2.6   -2.7
P     0.6   -4.5   -1.3
I     0.6    4.6    1.3
P     0.6    2.7    3.9
I     0.7   -2.8   -4.0
H    -0.4   -3.7    3.2
H    -3.9    3.2    0.3
H    -4.0   -1.3   -2.9
H    -2.9   -1.5   -4.1
I    -1.2    4.3   -2.8
N    -3.5   -2.1   -3.4
P     5.1   -1.0    1.4
I     5.2    0.9   -1.3
H     4.0    3.4    1.5
H    -2.9    4.3    2.2
H     1.5   -2.2    4.9
N     0.9   -3.0    4.7
I    -2.0    0.6   -5.3
I     2.5    1.3   -5.1
N    -4.4    3.9    0.8
H     5.0   -1.3   -2.9
H     4.0    4.4    0.1
H     5.1    3.2    0.3
N     4.6    3.9    0.8
H    -2.9    5.3    0.8
C    -3.5    4.8    1.5
I    -3.8   -2.8    3.9
H    -5.0    3.4    1.5
P    -3.9    2.8   -4.0
I     3.2    4.8   -2.4
H     0.1   -3.0    5.5
H     4.0   -3.5   -3.4
H     1.4   -3.9    4.8
H    -2.9   -5.7    0.8
I    -5.8    1.2    2.7
I     0.7    0.8    6.5
I     0.5   -6.4    1.3
P     0.6    6.5   -1.3
P     0.6   -0.9   -6.6
H    -5.0    4.4    0.1
H     0.1    4.4   -5.0
C    -4.4   -3.0   -4.2
H     4.0   -2.4   -4.9
H     1.4    3.5   -5.7
N     5.5   -2.1   -3.4
H    -3.7   -0.2    5.8
I    -2.0    4.2    5.1
I    -6.4   -2.5    0.1
C     4.6   -3.0   -4.2
H     4.1    1.1    5.6
H    -5.0   -3.5   -3.4
I     5.2   -2.8    3.9
P     5.1    2.8   -4.0
H    -3.8   -3.7   -4.7
H    -4.1   -5.4    2.0
H     6.1   -2.6   -2.7
H    -4.1    5.6    2.0
C    -3.5   -6.2    1.5
H    -2.8    2.0    6.4
N     0.8    4.4   -5.7
H    -7.2    0.9   -1.2
I     3.2   -6.2   -2.4
H    -5.0   -2.4   -4.9
I    -1.2   -6.8   -2.8
C     5.5    4.8    1.5
H     6.1   -1.5   -4.1
H    -4.9    1.1    5.6
H     4.9   -5.4    2.0
I     7.0   -3.0   -0.3
H    -2.9   -6.7    2.2
C    -4.3    0.6    6.3
I     2.5    4.9    5.4
H     4.9    5.6    2.0
H     4.0   -6.6    0.1
H     1.5    5.2   -5.5
H     6.1    4.3    2.2
H     5.3   -0.2    5.8
C     4.7    0.6    6.3
I    -5.8    4.8   -2.4
H     5.2   -3.7   -4.7
N    -3.4    1.5    7.0
H    -0.4    7.3    3.2
H     7.8    1.0   -1.3
I     7.7    0.6    2.3
H     4.0    0.1    7.0
H    -0.5    3.7   -7.2
H     1.5   -5.8   -5.5
H     6.1    5.3    0.8
H     0.1   -6.6   -5.0
I    -2.0    8.0   -0.3
C    -8.1    0.5   -1.6
H    -2.8    1.0    7.7
H    -5.0   -6.6    0.1
I    -6.5    1.3   -5.1
H    -8.3   -0.6   -1.3
I    -1.2   -3.2    7.6
H     6.1   -5.7    0.8
C     5.5   -6.2    1.5
N    -4.4   -7.1    0.8
C     0.2    4.6   -7.1
N     4.6   -7.1    0.8
I     2.5   -6.2    5.4
H     1.0    8.1    2.6
H    -5.0    0.1    7.0
H    -8.2    0.5   -2.7
I     3.2   -2.3   -7.7
H     1.4    7.1    4.8
H     4.0   -7.6    1.5
I    -1.3   -2.9   -8.2
N     0.8   -6.6   -5.7
H    -3.9   -7.9    0.3
I    -2.0   -6.9    5.1
H    -2.9    0.7   -8.3
I    -5.8   -6.2   -2.4
C     0.2    8.1    3.4
H    -0.2   -8.7   -1.3
H    -4.0    2.2    7.6
I     7.0    0.6   -5.3
H     0.8    4.1    7.8
P    -3.9   -4.6    6.5
H     8.8    1.2    0.0
H    -8.0   -2.9    2.6
I     2.6    8.5    0.1
I    -3.9    4.7   -6.5
N     8.8    1.3   -1.0
H    -0.4   -5.5   -7.1
H    -0.4    5.5   -7.1
N     5.6    1.5    7.0
I     3.2   -2.6    8.1
H     6.2    2.0    6.4
H     1.0    4.6   -7.8
I     0.7    8.2   -4.0
H     4.0    7.5   -3.4
H     8.8    2.3   -1.3
P     0.6   -8.3    3.9
H    -7.5   -2.2    4.9
H    -5.0   -7.6    1.5
P     0.7   -1.0    9.2
I     0.5    1.0   -9.2
I     7.8    4.3   -2.8
H    -9.2    1.2    0.0
N     0.9    8.0    4.7
H    -2.9    8.5   -2.7
H     5.0    2.2    7.6
N    -9.2    1.3   -1.0
H     6.1   -6.7    2.2
H     5.1   -7.9    0.3
H    -3.8    7.3   -4.7
H     1.4   -7.5   -5.7
P     5.1   -4.6    6.5
H     8.7   -1.9    3.4
I     5.1    4.7   -6.5
H    -9.2    2.3   -1.3
C     0.2   -6.4   -7.1
H    -4.1    2.0   -8.4
P    -8.4   -4.5   -1.3
P    -8.4    2.7    3.9
I     7.0    4.2    5.1
H    -5.0    7.5   -3.4
I    -8.3   -2.8   -4.0
H    -0.3    9.1    3.4
I    -8.4    4.6    1.3
H     0.2    8.0    5.5
H     0.8    3.0    9.2
C    -3.5    1.3   -9.0
I    -6.5    4.9    5.4
H    -0.2   -9.8    0.0
N    -0.2   -9.7   -1.0
C     0.9    4.0    8.9
H    -7.6   -3.9    4.8
H     3.9   -0.2   -9.0
C    -8.8   -2.9    3.4
H     9.7   -0.6   -1.3
P    -3.9    6.4    6.5
H     8.6   -3.7    3.2
N    -8.1   -3.0    4.7
I    -3.8    8.2    3.9
I    -3.9   -6.4   -6.5
P    -3.9   -8.2   -4.0
H     6.2    1.0    7.7
H     4.9    2.0   -8.4
I    -5.8   -2.3   -7.7
C     9.9    0.5   -1.6
C    -4.4    8.0   -4.2
H    -9.3   -1.9    3.4
H     5.2    7.3   -4.7
H    -7.6    3.5   -5.7
C     4.6    8.0   -4.2
H     1.5    8.8    4.9
H     1.0   -6.4   -7.8
H     9.8    0.5   -2.7
N    -3.5    9.0   -3.4
H    -1.2  -10.1   -1.3
C     9.2   -2.9    3.4
I    -5.8   -2.6    8.1
H    -1.1    4.5    9.2
H    -0.5   -7.3   -7.2
H    -2.9    1.8   -9.7
H   -10.2    1.0   -1.3
H     6.1    0.7   -8.3
H    -5.1   -0.2   -9.0
I    -1.9    0.6   10.2
H     1.8  -10.1   -1.2
H     1.9    4.4    9.2
P     5.1    6.4    6.5
I     5.1   -6.4   -6.5
H     0.8   -6.9    7.8
P     5.1   -8.2   -4.0
I    -6.5   -6.2    5.4
I     5.2    8.2    3.9
H    -0.1   -5.2    9.2
H     0.7   10.4   -1.3
I    -8.3    0.8    6.5
I   -10.3    0.6    2.3
C     5.5    1.3   -9.0
N    -0.2    4.8    9.5
N    -4.4    0.3   -9.7
I     3.2   -9.8    2.7
P    -8.4    6.5   -1.3
H    -9.4   -3.7    3.2
I     7.8   -6.8   -2.8
H     4.0    8.6   -4.9
I     9.6    4.6    1.3
I    -6.4    8.5    0.1
H    -0.3   -2.3  -10.4
I     7.0    8.0   -0.3
I    -1.3  -10.4    2.3
N     4.6    0.3   -9.7
C     0.9  -10.5   -1.6
H    -7.5    5.2   -5.5
I    -8.5   -6.4    1.3
P    -8.4   -0.9   -6.6
H    -2.9    9.5   -4.1
P     9.6    2.7    3.9
P     9.6   -4.5   -1.3
H    10.0   -2.9    2.6
H     6.1    8.5   -2.7
I     9.7   -2.8   -4.0
H     0.8  -10.5   -2.7
P    -3.9   10.0    1.4
H    -8.9   -3.0    5.5
H    -4.0    9.7   -2.9
I    -3.8    4.5    9.1
H    -0.1    5.8    9.2
I    -3.8  -10.1   -1.3
P    -4.0   -4.5   -9.1
N    -8.2    4.4   -5.7
H    -3.9   -0.4  -10.2
H    10.8    0.9   -1.2
I     2.6    1.1   10.6
H    -7.5   -5.8   -5.5
I    -1.2    7.8    7.6
H    -5.0    8.6   -4.9
N     5.5    9.0   -3.4
I     7.0   -6.9    5.1
H     9.1   -3.0    5.5
H    -8.9    4.4   -5.0
H     4.0    0.8  -10.4
I     2.5   -9.7   -5.1
H     5.0    9.7   -2.9
N    -0.2   -6.2    9.5
H     9.1    4.4   -5.0
H    -1.1   -6.5    9.2
P     5.1   10.0    1.4
C     0.9   -7.0    8.9
P     5.0   -4.5   -9.1
N     9.9   -3.0    4.7
I   -11.0   -3.0   -0.3
I     7.8   -3.2    7.6
H    -2.8   -9.0    6.4
H     5.1   -0.4  -10.2
I     5.2  -10.1   -1.3
I     5.2    4.5    9.1
I   -10.2    4.3   -2.8
H    -7.6    7.1    4.8
H     1.9   -6.6    9.2
H    -0.2    4.8   10.5
H    -5.0    0.8  -10.4
I     7.7   -2.9   -8.2
I    -1.3    8.1   -8.2
I     9.5   -6.4    1.3
H     6.1    1.8   -9.7
C     0.9   11.5   -1.6
P     9.6   -0.9   -6.6
H     0.7  -11.6   -1.3
P     9.6    6.5   -1.3
I     9.7    0.8    6.5
H    -8.0    8.1    2.6
I    -5.8   -9.8    2.7
H     8.6    7.3    3.2
N    -0.3   -2.3  -11.5
H     4.0   -3.1   10.6
I     2.5    5.0  -10.3
H    -2.8   -2.1   11.2
H     8.5    3.7   -7.2
H    10.5   -2.2    4.9
I    11.6   -2.5    0.1
I    -2.0    4.5  -10.8
P    -4.0    6.5   -9.1
H    -0.2   -1.3  -11.8
I    -3.8   -6.5    9.1
I    -2.0  -10.4   -5.3
H     0.8   11.5   -2.7
N    -8.2   -6.6   -5.7
I    -1.3   11.7    2.3
H    -8.2    4.1    7.8
H     6.1    9.5   -4.1
H     4.0   -9.9    5.6
I     3.2    8.7   -7.7
H    -5.0   -3.1   10.6
H     1.8   11.9   -1.2
P     0.6   10.1   -6.6
H    -1.1   12.0   -1.3
I     3.2    8.4    8.1
H    -7.6   -7.5   -5.7
H    10.4   -3.9    4.8
H    -8.0    4.6   -7.8
H    -1.2   -2.6  -11.8
I     0.6   -2.9   11.8
P     0.6    2.9  -11.8
H    -8.9   -6.6   -5.0
I     0.7  -10.3    6.5
H     1.8   -2.7  -11.7
C    -8.8    4.6   -7.1
H    -3.9   -4.3   10.7
H    -0.2   -6.2   10.5
N     9.8    4.4   -5.7
I     2.5   -6.0  -10.3
H     0.8   -8.0    9.2
I   -11.0    0.6   -5.3
P     5.0    6.5   -9.1
H    -0.2   12.3    0.0
H    -4.0   -8.8    7.6
H     9.1   -6.6   -5.0
H    10.4    3.5   -5.7
N    -3.4   -9.5    7.0
N    -0.2   12.3   -1.0
N    -8.1    8.0    4.7
H    -9.4    7.3    3.2
I    -8.3    8.2   -4.0
I     5.2   -6.5    9.1
H    -5.0   -9.9    5.6
I     7.1    0.6   10.2
C    -8.8    8.1    3.4
P    -8.3   -1.0    9.2
I    -6.4    1.1   10.6
P    -8.4   -8.3    3.9
H     0.7   -4.1  -11.7
H   -11.9   -2.6   -2.7
H     8.6   -5.5   -7.1
H    -7.1    4.4    9.2
H     8.6    5.5   -7.1
C     9.2    4.6   -7.1
H     8.8   -8.7   -1.3
C     0.8   -3.1  -12.1
H    -9.5    3.7   -7.2
H    -7.2  -10.1   -1.2
I    -8.5    1.0   -9.2
H    -7.5    8.8    4.9
I    12.2    1.2    2.7
I   -10.2   -6.8   -2.8
N    -4.4   -3.6   11.3
I    11.5    1.3   -5.1
I    -3.8   11.9   -1.3
H     6.2   -9.0    6.4
H   -11.9   -1.5   -4.1
H     5.0   -8.8    7.6
C    -8.1    4.0    8.9
H     5.1   -4.3   10.7
N     4.6   -3.6   11.3
I    -3.9   -2.6  -11.8
H    -8.2    3.0    9.2
P    -3.9  -12.0    1.4
P    -3.9    2.6   11.8
H    -9.2   -8.7   -1.3
C    -3.5   -2.6   12.0
I    -2.0   -6.5  -10.8
I    -6.5   -9.7   -5.1
C     9.2    8.1    3.4
I   -11.0    4.2    5.1
H   -11.9    4.3    2.2
H     7.8  -10.1   -1.3
H    -3.7   10.8    5.8
