         400
 sphere cut out from bulk 
H    -0.1   -0.9    1.2
H     0.7   -1.4   -1.0
C    -0.1   -1.9   -0.6
H    -1.1   -1.5   -0.9
N    -0.1   -1.9    0.9
I    -0.2    1.4    2.2
H     0.8   -2.3    1.2
I    -0.3    1.5   -2.4
H    -0.9   -2.4    1.3
H    -0.1   -3.0   -0.9
P    -1.8    3.1    0.0
H     2.8    2.7    0.3
I     3.3   -1.2   -2.3
I    -4.2    0.9   -0.1
I     3.4   -1.2    2.3
N     3.6    2.8   -0.2
H     3.5    2.8   -1.3
H    -2.8    1.1    3.5
H     4.3    2.1   -0.0
P     1.8    0.5   -4.5
I    -3.2   -2.9    2.2
P     1.8    0.6    4.5
H    -4.0    0.8   -2.8
I    -3.5   -3.0   -2.3
H    -2.7   -0.4   -4.5
H    -3.2    1.8   -3.8
H    -3.8   -0.4    3.6
I     0.6    5.3   -0.0
C    -3.8    0.6    3.9
I    -0.0   -2.1   -5.1
N    -3.9    1.1   -3.8
I     0.1   -2.1    5.2
P     5.4   -2.1    0.0
P    -5.5   -2.1    0.0
H    -4.6    1.2    3.4
H     3.4   -3.5   -3.4
C     4.3    4.1    0.1
C    -3.6    0.0   -4.8
I     0.3   -5.6   -2.3
H     3.5    4.9   -0.1
I     0.3   -5.6    2.3
I     3.7    3.0   -3.8
I     3.6    3.1    3.9
H     4.5    4.1    1.2
I    -3.3    4.7    2.3
I    -3.3    4.8   -2.3
H     0.5    5.4   -3.2
H    -0.8    4.5    4.3
H     2.5   -4.8   -3.3
H    -2.1   -6.1   -0.4
H    -4.8    1.6   -4.0
H    -4.5   -0.7   -4.7
H    -1.2    5.5   -3.3
H     0.1    5.7    3.3
I     4.2   -5.1   -0.0
H    -3.7   -5.4   -0.1
H     2.5   -3.5    5.0
H    -3.1    0.3    5.8
N    -3.9    0.8    5.4
H     1.0    4.8    4.5
N     3.4   -4.5   -3.7
H     5.2    4.3   -0.4
P    -1.8   -4.6   -4.5
I     6.7    0.9   -0.1
P    -1.9   -4.7    4.5
C     0.0    5.3    4.3
H     3.7   -4.7    3.3
H    -3.6    0.5   -5.8
H    -6.6    2.1   -0.0
C    -3.0   -6.2    0.1
H    -2.8   -6.2    1.2
N    -0.2    5.9   -3.7
H    -3.8    1.8    5.7
I     0.2    2.2    6.7
H    -5.7    4.3   -0.4
H     4.1   -5.0   -3.2
I     0.4    2.2   -6.8
H    -0.2    4.7   -5.4
H     6.3    1.2    3.4
H     2.6   -4.0   -5.6
N     3.3   -4.0    5.2
H     4.1   -3.3    5.2
H     6.1    1.6   -4.0
H    -4.8    0.4    5.7
P     1.8   -7.2    0.0
H     6.9    0.8   -2.8
C     3.6   -5.1    4.3
H    -0.2    6.9   -3.4
C     3.5   -4.6   -5.2
H    -6.4    4.1    1.2
C    -0.2    5.8   -5.2
N    -7.2    2.8   -0.2
H     2.8   -5.8    4.3
I     3.9   -0.5   -6.7
I     3.9   -0.4    6.7
C    -6.6    4.1    0.1
H     7.0   -0.4    3.6
I    -7.5   -1.2    2.3
H     0.8   -1.1   -7.8
I    -7.5   -1.2   -2.3
H     6.4   -0.7   -4.7
N     7.0    1.1   -3.8
H    -7.4    2.8   -1.3
H    -0.2   -2.3    7.8
C     7.1    0.6    3.9
H     4.4   -4.2   -5.5
N    -0.3    6.4    5.2
H     3.3   -4.4    6.2
H    -3.7    7.4   -0.9
H     0.8    6.2   -5.5
I     7.4   -3.0   -2.3
N    -3.6   -7.5   -0.2
H     6.1    0.4    5.7
I    -6.7   -5.1   -0.0
P     1.8    8.3    0.0
I     7.7   -2.9    2.2
H     4.6   -5.6    4.5
H    -1.0    6.4   -5.6
H     3.4   -5.6   -5.4
H    -3.8   -7.5   -1.3
H    -8.1    2.7    0.3
I    -4.0   -3.6    6.7
H    -1.2    6.8    5.0
I     3.8    7.3   -2.3
H    -2.8    8.0    1.2
H    -0.3    6.0    6.2
I    -7.2    3.0   -3.8
H     2.7    2.8   -7.7
I    -3.9    3.9   -6.7
C     7.2    0.0   -4.8
I     4.0    7.4    2.2
I    -3.9   -3.9   -6.8
H     1.6   -0.9    8.6
I    -3.9    4.0    6.8
H     7.7    1.8   -3.8
H    -2.9   -8.3   -0.0
I    -7.3    3.1    3.9
H     0.5    7.1    5.2
H    -7.3    4.9   -0.1
N     7.0    0.8    5.4
H     8.1    1.1    3.5
H    -7.5   -3.5   -3.4
H    -4.5   -7.7    0.3
H    -0.1   -0.2    8.9
H    -6.8   -5.0   -3.2
C     0.6   -1.1   -8.9
I    -3.6   -7.2    3.9
H     7.2   -5.4   -0.1
I    -3.5   -7.4   -3.8
P     5.4    5.7    4.5
N     0.0   -2.3    8.8
P    -5.5    5.7    4.5
P     5.4    5.7   -4.5
P    -5.4    5.7   -4.5
H     3.6    2.2    8.1
H    -0.1   -0.3   -9.1
H    -0.9   -2.5   -8.8
H    -6.8   -3.3    5.2
H    -7.2   -4.7    3.3
I     7.6    4.7    2.3
H     7.1    1.8    5.7
I     7.6    4.8   -2.3
C     0.6   -1.0    9.2
C    -3.7    8.4   -0.6
H    -4.5    8.0    1.3
N    -3.7    8.5    0.9
H     2.6    3.7    8.1
I    -0.3   -6.3    6.8
I    -0.3   -6.5   -6.7
H     7.3    0.5   -5.8
H     0.5   -8.5   -3.8
H     8.2   -0.4   -4.5
H     4.4    2.8   -7.8
I    -0.2    9.1    2.3
I    -0.3    9.2   -2.3
H    -6.5   -4.2   -5.5
N     3.6    3.2   -8.2
N    -7.5   -4.5   -3.7
H    -2.9    9.0   -1.0
I    -0.6   -9.5   -0.1
I    -3.1    0.2    9.0
H     0.7   -3.1    9.0
H    -6.3   -5.6    4.5
I    -3.1    0.1   -9.0
N    -0.0   -2.4   -9.3
H     3.5    4.2   -7.8
H     0.7   -3.2   -9.1
H     1.5   -1.0   -9.5
P     9.1    3.1    0.0
H    -0.8   -2.5    9.3
P    -1.8    3.0   -9.0
I    -6.9   -0.4    6.7
C     3.5    3.3    8.4
H    -1.2   -8.8   -4.0
I    -7.0   -0.5   -6.7
I     3.3   -8.8   -2.4
H     7.8    0.3    5.8
P    -1.8    3.1    9.1
H    -1.0   -9.2    3.4
C    -7.3   -5.1    4.3
I     3.4   -9.0    2.2
H     4.4    3.8    8.0
H     9.8   -1.5   -0.9
N    -0.3   -9.2   -3.8
H     0.8   -9.3    3.5
H     6.4   -7.7    0.3
H    -0.4   -9.6   -2.8
N    -7.5   -4.0    5.2
I     3.4    6.5   -6.8
C     7.9   -6.2    0.1
I     3.3    6.8    6.7
H    -4.7    8.9   -0.9
P    -9.1    0.6    4.5
C    -7.4   -4.6   -5.2
P    -9.1    0.5   -4.5
H    -3.7    9.5    1.2
H    -8.4   -4.8   -3.3
I     6.9   -3.6    6.7
H     8.1   -6.2    1.2
H    -0.2   -8.6    5.7
H   -10.2   -1.4   -1.0
H     0.8   -1.0   10.2
H     6.4    8.0    1.3
I    -6.9    7.4    2.2
H     7.2    7.4   -0.9
I    -3.5    8.2    5.2
I     3.1   -4.2    8.9
H    10.0   -2.4    1.3
I    -3.6    8.3   -5.1
H   -10.1   -2.3    1.2
H     7.1   -7.5   -1.3
H    -8.4   -3.5    5.0
I    -7.1    7.3   -2.3
I     7.0    3.9   -6.7
C    -0.2   -9.7    3.9
N     7.3   -7.5   -0.2
I     7.0   -3.9   -6.8
H    -6.5    2.8   -7.8
I     7.0    4.0    6.8
I     3.0   -4.3   -9.1
H    -0.2   -2.4  -10.3
H    -3.7   -6.1   -7.8
P    -5.4   -2.1   -9.0
H     8.8   -6.1   -0.4
P     5.5   -2.1   -9.0
H    -2.9   -6.5    8.0
P    -5.4   -2.0    9.1
C     3.5    3.2   -9.6
H    -7.6   -4.4    6.2
H    -8.3   -4.0   -5.6
H     3.5    2.2  -10.0
P     5.5   -2.0    9.1
H    -7.5   -5.6   -5.4
I    -0.6    6.1    8.9
H    -8.1   -5.8    4.3
H     6.2    8.9   -0.9
I    10.5    1.5   -2.4
H    10.8   -0.9    1.2
H     2.6    3.7  -10.0
C    10.8   -1.9   -0.6
I    10.6    1.4    2.2
I    -0.6    6.0   -9.1
I     7.3   -7.2    3.9
N    -0.2   -9.6    5.4
H    -6.5    3.8    8.0
N    10.8   -1.9    0.9
N     3.6    3.3    9.9
H     2.8    2.9   10.3
C     7.1    8.4   -0.6
H   -11.0   -0.9    1.2
I     7.4   -7.4   -3.8
H     2.8    9.7   -4.7
P     9.0   -4.7    4.5
H     3.4   10.0    3.6
P     9.1   -4.6   -4.5
N   -10.9   -1.9    0.9
H    -7.3    2.2    8.1
N     7.2    8.5    0.9
C   -11.0   -1.9   -0.6
H    -2.8   -7.6   -7.8
H    10.8   -3.0   -0.9
I     3.8   -8.2    6.7
H    -0.2  -10.8    3.6
C    -0.0  -10.3   -4.8
I     4.0   -8.2   -6.8
H   -11.0   -3.0   -0.9
I   -11.1    1.4    2.2
N    -7.3    3.2   -8.2
I     0.4    2.3   11.2
N    -3.7   -7.1   -8.2
H     0.0   -9.9   -5.8
H    -4.7   -6.6    8.1
H     8.1    8.0    1.2
H     8.0   -8.3   -0.0
I     0.2    2.1  -11.3
H    -1.2  -10.0    5.7
H    -7.4    4.2   -7.8
H     4.5    2.9   10.3
H     4.3    3.8  -10.1
H    -8.2    2.8   -7.7
P    -9.0   -7.2    0.0
I   -11.2    1.5   -2.4
I   -10.3    5.3   -0.0
C    -3.7   -7.1    8.4
C    -7.4    3.3    8.4
H     3.6    4.3   10.2
I     3.1   11.3   -0.1
H     9.7    5.5   -3.3
H     0.5  -10.1    5.8
H     0.9  -10.8   -4.5
P     1.8   -7.3   -9.0
H    11.6   -1.4   -1.0
P     1.8   -7.3    9.1
H    -4.5   -7.6   -7.7
H    -3.8    8.1    7.8
H     4.6    9.9   -4.5
H    10.1    4.5    4.3
H     3.5  -11.3    1.2
P    -1.9   10.9   -4.5
I    -7.6   -8.8   -2.4
I    -7.5   -9.0    2.2
H    -9.9    4.8    4.5
I     7.8    0.2    9.0
H    -2.9    7.3    9.0
H     7.2    9.5    1.2
I     7.8    0.1   -9.0
H     3.3   11.1   -2.8
H    -2.9    7.2   -9.1
I     0.3    9.9   -6.7
I     3.9   -0.5  -11.3
P    -1.8   11.0    4.5
I     3.9   -0.4   11.3
H    11.7   -2.3    1.2
C     3.6   10.4   -4.8
H    -0.8  -11.1   -4.7
H    -3.7   -8.1    8.1
P    -5.4   -9.8    4.5
P     5.4   -9.8    4.5
I     0.3   10.0    6.7
H     8.0    9.0   -1.0
I    -7.5    6.5   -6.8
H   -11.8   -2.4    1.3
H   -12.0   -1.5   -0.9
P     5.4   -9.9   -4.5
H   -10.4    5.4   -3.2
I     7.3    8.3   -5.1
I    -7.6    6.8    6.7
I   -10.8   -2.1    5.2
H     6.2   -6.6    8.1
H     2.6  -11.9   -0.9
P    -5.5   -9.9   -4.5
H    -8.3    3.7    8.1
C     3.5   11.0    3.9
I   -10.6   -5.6   -2.3
I    10.9   -2.1   -5.1
I     7.4    8.2    5.2
I   -10.6   -5.6    2.3
I   -10.9   -2.1   -5.1
H     7.2   -6.1   -7.8
P    -9.1    8.3    0.0
P     1.8    8.3   -9.0
I    11.0   -2.1    5.2
H     2.7   11.6    3.4
H    -2.9   -6.6  -10.1
I    -3.9  -11.6   -2.3
H     2.5   10.8    5.7
H    -3.7   -6.1   10.2
I    -3.9  -11.6    2.3
H    -6.4    2.9   10.3
N    -3.6    8.1    8.8
I    -3.9   -3.8   11.2
H    -2.8    9.3   -7.8
H     0.7   12.5   -0.0
P     1.9    8.4    9.1
I    -3.9   11.7    2.2
N     3.3   11.5   -3.8
H    -6.6    3.8  -10.1
C    -7.4    3.2   -9.6
H     6.4   -7.6   -7.7
H    -7.4    2.2  -10.0
H    -4.5    7.8   -8.8
H     4.3  -11.8   -1.0
I    -3.9    3.9  -11.3
C    -3.8   -7.2   -9.6
H    -6.3    9.9   -4.5
I    -7.8   -4.2    8.9
H    -3.1    0.2  -12.2
I    11.5    5.3   -0.0
P    -1.8  -12.5    0.0
I    -4.0   -3.7  -11.4
I    -3.8    4.0   11.4
H   -10.8    5.7    3.3
N    -3.7   -7.0    9.9
I    -6.9   -8.2   -6.8
I    11.2   -5.6   -2.3
H    -9.3   -0.9    8.6
N    10.6    5.9   -3.7
I    11.2   -5.6    2.3
I   -10.5    2.2   -6.8
I    -7.1   -8.2    6.7
