         400
 sphere cut out from bulk 
P    -0.1    0.0    1.5
I     2.3    0.3   -0.5
I    -1.2   -2.1   -0.6
I    -1.5    2.1   -0.5
P    -0.1    0.2   -2.6
I     1.2   -2.1    3.7
I     0.9    2.2    3.7
I    -2.6   -0.2    3.6
H     3.9    2.1   -1.2
H     4.3   -1.6    0.7
H    -0.9   -3.9   -2.2
H    -3.8    2.6   -1.2
H    -3.8   -2.9    0.7
H    -0.9    4.8    0.8
H     3.8   -3.4    0.7
H     3.6   -2.5    2.9
H     0.9    5.1    0.8
I     1.2   -2.0   -4.7
C     4.5   -2.6    1.0
H    -5.0   -1.6    0.7
I     1.1    2.2   -4.8
I    -2.5    0.0   -4.8
H     0.2    4.5    3.0
H    -4.1   -2.0    2.9
H    -0.0   -4.0   -3.7
N    -0.6   -4.6   -3.0
N     4.5    2.8   -1.6
C    -4.8   -2.6    1.0
C    -0.1    5.4    1.1
H     1.1   -5.2   -1.9
H     4.2    3.7   -1.2
N    -4.8    2.8   -1.6
P    -0.2    0.0    5.8
N     4.5   -2.7    2.5
H     3.5    3.2   -3.4
H    -5.4    2.1   -1.2
H    -4.5    1.9   -3.4
N    -4.8   -2.7    2.5
N    -0.1    5.4    2.6
C     0.2   -5.7   -2.4
C     4.5    2.8   -3.1
H     4.8    1.9   -3.4
H     5.5    2.6   -1.2
H     0.3   -4.4    4.3
H     5.1   -2.0    2.9
H    -1.4   -5.0   -3.5
H     5.5   -2.9    0.7
C    -4.8    2.8   -3.1
H    -4.0    3.6   -3.4
H    -4.4   -3.6    2.9
H    -0.4   -6.2   -1.6
H    -5.1    3.7   -1.2
H    -1.0    5.6    3.0
H    -5.5   -3.4    0.7
H    -0.3    6.5    0.8
H     4.9   -3.6    2.9
H     3.5    3.0    4.9
P    -0.1    0.1   -6.8
I     3.4    6.0   -0.5
H     0.6    6.2    3.0
H    -5.7   -2.5    2.9
H    -4.5    1.8    4.9
I     3.5   -6.0   -0.5
I    -7.0    0.3   -0.5
H    -1.0   -5.5    4.3
H     3.5   -2.0   -5.8
H     4.8    1.8    4.9
N    -0.0   -5.3    4.7
H     0.5   -6.4   -3.2
H     5.3    3.6   -3.4
H    -4.1    3.5    4.9
H    -5.7    3.2   -3.4
H    -4.3   -1.3   -5.9
C     4.5    2.8    5.3
H     0.6   -6.1    4.4
I     6.7   -0.2    3.6
C    -4.8    2.8    5.3
I    -3.4   -5.8    3.7
H     0.7    4.5   -6.3
H     5.0   -1.3   -5.9
I    -3.4    6.1    3.7
N     4.2   -1.8   -6.5
H     5.2    3.5    4.9
H    -0.8   -4.6    6.5
I     7.8    2.1   -0.5
H    -5.8    3.0    4.9
C    -0.1   -5.3    6.2
I    -1.3   -2.1    7.9
I    -1.5    2.1    7.8
H     3.9   -1.1   -7.2
I     2.3    0.2    7.9
I    -3.4   -5.9   -4.7
I     6.7    0.0   -4.8
H     0.9   -5.0    6.6
H    -4.0   -3.6   -6.3
I     8.0   -2.1   -0.6
I    -2.2   -8.0   -0.5
H     3.8    2.0    7.1
I    -5.8   -6.0   -0.5
I    -5.9    6.0   -0.5
N    -5.0   -1.8   -6.5
I    -3.4    6.1   -4.7
I    -2.3    8.1   -0.5
H    -1.1    6.1   -5.8
H    -5.8   -2.0   -5.8
H    -3.9    2.6    7.2
N     4.4    2.8    6.8
C     0.2    5.1   -7.1
N    -4.8    2.8    6.8
H    -0.6    4.6   -7.5
C    -4.4   -3.0   -7.1
H     5.3   -3.6   -6.3
H     4.1    3.7    7.1
H    -3.7   -2.7   -7.8
N    -0.3    6.3   -6.4
I     5.8   -5.8    3.7
H     0.4    6.9   -5.9
H    -5.4   -1.1   -7.2
C     4.8   -3.0   -7.1
H    -0.3   -6.3    6.6
I     2.2   -8.1    3.7
I    -8.1   -2.1    3.7
I     2.1    8.1    3.7
I     2.5    0.2   -8.9
H    -5.5    2.0    7.1
I    -1.1   -2.1   -8.9
P     9.1    0.0    1.5
I     5.9    6.1    3.7
H     4.0   -3.5   -7.6
I    -1.3    2.1   -9.0
H     5.4    2.6    7.2
I    -8.3    2.2    3.7
P    -4.6   -8.0    1.6
P     4.7   -8.0    1.6
P     4.6    8.1    1.6
H     8.4   -3.9   -2.2
P    -4.7    8.1    1.6
P     9.2    0.2   -2.6
P    -9.4    0.0    1.5
H    -5.2    3.7    7.1
H     1.0    5.4   -7.8
I     5.9   -5.9   -4.7
I    -8.1   -2.0   -4.7
P    -4.6   -8.1   -2.6
I     2.2    8.1   -4.7
I     2.3   -8.1   -4.7
P     4.7   -8.1   -2.6
P     4.6    8.1   -2.6
I     5.9    6.1   -4.7
H     8.4    4.8    0.8
I    -8.2    2.2   -4.8
P    -4.7    8.1   -2.6
P    -9.4    0.2   -2.6
H    -0.2   -9.7    0.8
H    -8.4    5.1    0.8
H    -8.2   -5.2   -1.9
H    -5.2   -3.5   -7.6
H     7.9   -5.0   -3.5
P    -0.3    0.1   10.0
H     5.6   -2.7   -7.8
H    -0.7    7.0   -7.2
H    -0.5   10.0   -1.6
H    -3.9   -2.7    9.0
N     8.7   -4.6   -3.0
H     0.4    9.8   -3.2
H     3.7   -1.2    9.6
H    -0.8    4.6    9.3
H     8.2    5.6    3.0
I     3.4    6.0    7.8
I     3.3   -6.0    7.8
H     0.7  -10.0    3.0
H     0.8    5.4    9.0
H     3.8   -3.5    9.2
H    -9.1    4.5    3.0
I    -7.0    0.2    7.9
H    -3.7    2.6   -9.6
H     4.0    2.0   -9.7
I   -10.5   -2.1   -0.6
I     7.1   -8.0   -0.5
H     9.3   -4.0   -3.7
I     3.3   10.2   -0.5
C     9.2    5.4    1.1
I     7.0    8.1   -0.5
H    -9.3   -4.0   -3.7
C     0.1   10.5   -2.4
P     9.1    0.0    5.8
C     0.0  -10.7    1.1
I     3.5  -10.2   -0.5
H     5.4   -2.7    9.0
H     8.3   -5.5    4.3
H    -8.9   -4.4    4.3
C    -9.4    5.4    1.1
P    -4.6   -8.0    5.8
H     9.5    4.5    3.0
C    -9.0   -5.7   -2.4
P     4.7   -8.0    5.8
H     8.9   -6.2   -1.6
I   -10.8    2.1   -0.5
P     4.5    8.2    5.8
H     0.5   10.1    4.4
N     9.2    5.4    2.6
C     0.0    5.1    9.7
H    -0.9  -10.6    3.0
H     0.5   -9.3   -5.9
P     0.0    0.0  -11.0
N     0.0  -10.7    2.6
I    10.2    2.2    3.7
P    -9.5    0.0    5.8
P    -4.7    8.2    5.8
H     9.0    6.5    0.8
H    -8.7    6.2    3.0
H     1.0  -11.1    0.8
N    -9.4    5.4    2.6
C     4.6   -3.0    9.7
H   -10.2   -3.9   -2.2
C    -4.6   -3.0    9.7
H     1.0   11.0   -1.9
H    -5.6   -1.2    9.6
I    -6.8    0.2   -8.9
I     7.7    2.1    7.8
H    -5.3    2.0   -9.7
I    -3.3  -10.0    3.7
H   -10.1    4.8    0.8
H     4.3    3.7   -9.7
N     4.0   -1.8   10.3
H    -5.4   -3.5    9.2
I    10.5   -2.1    3.7
N    -9.9   -4.6   -3.0
H    -8.8   -6.4   -3.2
H    -0.6   -4.6  -10.3
C     9.5   -5.7   -2.4
I     3.6    6.0   -9.0
I    -7.1   -8.1    3.7
I     3.5   -6.0   -9.0
I     8.0   -2.1    7.9
N    -4.6    2.8  -10.0
N     4.6    2.8  -10.0
H    10.2    5.1    0.8
H     9.6   -4.4    4.3
P     9.2    0.1   -6.8
H     1.1   -5.0  -10.2
H    -8.7   -6.1    4.4
H     5.6    2.6   -9.6
I    -7.2    8.1    3.7
P    -4.6   -8.0   -6.8
H     0.5    4.5   10.5
H    -0.7  -11.4    0.8
H    -5.0    3.7   -9.7
I    -5.9    6.0    7.8
P     4.7   -8.0   -6.8
I    -2.3   -8.0    8.0
I    -6.0   -6.0    7.8
I    -3.5   10.3    3.7
H    -8.6    4.5   -6.3
H    -1.1   10.7    4.3
H    -9.6    6.5    0.8
H    -9.7   -6.2   -1.6
I    11.6    0.3   -0.5
P     4.6    8.2   -6.8
P    -9.4    0.1   -6.8
H     8.4   -4.6    6.5
I    10.4    2.2   -4.8
H     3.3   -2.0   11.0
I    -3.3  -10.1   -4.7
I    10.4   -2.0   -4.7
P    -4.7    8.2   -6.8
H    -1.0  -10.1   -5.8
I    -2.4    8.2    8.0
N     9.3   -5.3    4.7
H    -0.6   -9.2   -7.2
I    -7.0   -8.1   -4.7
N    -9.3   -5.3    4.7
H     8.2    6.1   -5.8
N    -5.2   -1.8   10.3
I    -5.8  -10.2   -0.5
H    -8.4   -5.0    6.6
N    -0.2   -9.8   -6.4
I    -7.1    8.1   -4.7
H    10.4   -5.2   -1.9
I    -5.9   10.2   -0.5
I    -3.5   10.3   -4.7
N    -0.1   10.8    4.7
H    -0.4    9.9    6.6
H    -1.5   11.2   -3.5
H    -4.5   -1.3   10.9
C     0.1   -5.3  -10.6
H    -4.2   -3.6   10.5
H    -0.9    7.0    9.6
H     4.8   -1.3   10.9
H     9.8    6.2    3.0
N    -0.7   11.6   -3.0
H    -0.1   -6.3  -10.3
H     0.3  -11.7    3.0
I    -2.1   -8.0   -8.8
H     9.8   -6.4   -3.2
H   -10.3    5.6    3.0
N    -0.5    6.3   10.4
I     7.9    2.1   -9.0
I    -5.7    6.0   -9.0
H     5.1   -3.6   10.5
I    -5.8   -6.0   -9.0
I    -2.2    8.2   -8.8
I     0.9    2.2   12.0
I     6.0  -10.0    3.7
I     1.0   -2.0   12.1
I     8.2   -2.1   -8.9
H   -10.7   -5.0   -3.5
C     9.2   -5.3    6.2
I    -2.7    0.0   12.0
H     8.7    4.6   -7.5
I     5.7   10.3    3.7
I   -11.9   -0.2    3.6
C    -9.3   -5.3    6.2
H   -10.2   -5.5    4.3
H     9.9   -6.1    4.4
H    -1.0   12.2   -2.2
C    -0.2   10.9    6.2
H     0.2   11.8    4.3
C    -9.0    5.1   -7.1
H    -8.3    5.4   -7.8
H    10.0    4.5   -6.3
I     6.0  -10.1   -4.7
H    -1.3    6.1   11.0
H    -6.0   -2.0   11.0
I     5.8   10.3   -4.7
H    -8.9    6.9   -5.9
H    -0.1   12.2   -3.7
N     8.9    6.3   -6.4
C    -4.6    2.8  -11.5
H    -4.3    1.8  -11.9
I   -11.8    0.0   -4.8
C     4.7    2.8  -11.5
H     9.0   -6.3    6.6
H     3.7    3.0  -11.9
H   -10.1   -4.6    6.5
H     0.2    6.9   10.9
C     9.5    5.1   -7.1
H    -3.9    3.5  -11.9
H     5.0    1.8  -11.9
H     0.8   11.2    6.6
H    10.2   -5.0    6.6
C     0.3  -11.1   -7.1
H     8.5    7.0   -7.2
N    -9.6    6.3   -6.4
H    -9.6   -6.3    6.6
H    -9.8    4.6   -7.5
N     0.2   -5.3  -12.1
H     4.3  -12.5   -1.2
H     0.5   -4.4  -12.5
I     3.2   10.2    7.8
H     9.7    6.9   -5.9
H     0.8  -11.7   -6.3
I     7.0   -8.0    8.0
H    -0.9   11.6    6.5
H     1.1  -10.7   -7.8
H     9.1   -9.7    0.8
I   -10.6   -2.1    7.9
I     1.1    2.2  -13.1
I     3.5  -10.2    7.8
H     3.6   12.8    0.7
H    -0.8   -9.2    9.6
I     6.9    8.2    8.0
H    13.2    2.1   -1.2
I     1.4   -2.1  -13.1
H   -10.4    6.1   -5.8
I    -2.4   -0.1  -13.2
H     8.5    4.6    9.3
H   -13.1   -2.9    0.7
P     9.0    0.1   10.0
H    12.8   -2.5    2.9
H   -13.1    2.6   -1.2
H     8.8   10.0   -1.6
H    13.0   -3.4    0.7
H    -5.0  -12.5   -1.2
H    -5.6    3.0  -11.9
H     5.4    3.5  -11.9
I   -10.8    2.1    7.8
H    -8.5    5.4    9.0
H    -8.6  -10.0    3.0
P     4.5   -8.0   10.0
H    -9.5   -9.7    0.8
H    -8.9    9.8   -3.2
H    -3.9  -12.6   -3.4
H    12.8    3.2   -3.4
P     4.4    8.2   10.0
H    13.5   -1.6    0.7
H    -4.5   12.6    2.9
H    -0.8   -5.5  -12.5
P    -4.8   -8.0   10.0
I     6.5    0.0   12.0
H     4.8   12.6    2.9
H    -0.2   -4.0   13.2
H     8.3  -10.6    3.0
P    -4.9    8.2   10.0
P    -9.6    0.1   10.0
H    -3.9   13.3    0.7
H    -8.3  -11.1    0.8
I   -10.4   -2.1   -8.9
H    -0.5  -11.6   -7.5
H    -8.3   11.0   -1.9
