         400
 sphere cut out from bulk 
I     1.1   -0.5    0.8
H    -1.4   -0.2    1.2
N    -2.4   -0.6    1.4
H     1.3    2.5   -0.1
P     1.6   -0.6   -2.4
H    -2.5   -2.0   -0.2
H    -3.2   -0.3   -0.5
C    -3.1   -1.1    0.2
H    -2.2   -1.3    2.1
I    -0.4    1.9   -2.8
H    -3.0    0.2    1.9
C     2.0    3.4    0.2
I    -0.9   -2.6   -2.9
H     1.1    3.3    2.1
H     2.9    3.0    0.6
P     1.7   -0.5    3.9
H    -4.1   -1.5    0.5
N     1.3    4.0    1.4
H     0.4    4.4    1.1
H     2.1    4.1   -0.6
I    -0.1    2.2    4.2
I    -2.2    4.2    0.8
I     4.1    1.5   -2.1
H     0.3   -4.7    1.1
H     1.8   -4.3    1.8
I    -1.0   -2.4    4.3
H     4.8   -1.5    0.5
I     3.6   -3.1   -2.0
P    -2.8    3.9   -2.4
N     1.2   -5.1    1.4
I    -4.8    1.5   -2.1
H     2.0   -5.0   -0.6
H     1.9    4.8    1.8
I    -2.2   -4.9    0.8
H    -3.0    0.7   -4.5
H    -2.5   -1.6   -4.6
H    -1.5    0.4   -5.5
I     4.3    1.4    3.5
H     5.7   -0.3   -0.5
H     1.0    3.9   -4.3
I    -4.6    1.4    3.5
C     5.8   -1.1    0.2
I     3.4   -3.2    3.6
C    -2.6    0.3   -5.4
C     1.9   -5.7    0.2
I     2.2   -0.8   -5.6
H     5.9    0.2    1.9
H     1.1   -5.8    2.1
P    -2.8    4.0    3.9
N    -3.0   -1.2   -5.4
P    -2.8   -5.2   -2.4
H     2.4    3.1   -5.0
I    -5.3   -3.1   -2.0
C     1.9    4.1   -4.9
H     2.4   -4.3   -4.4
N     6.5   -0.6    1.4
H     6.4   -2.0   -0.2
H    -5.9    3.0    0.6
H     1.3   -6.6   -0.1
H     2.9   -6.1    0.6
H     0.9   -5.2   -4.3
H    -4.0   -1.3   -5.4
H     2.5    4.8   -4.4
H    -2.6   -1.6   -6.3
H    -2.6   -1.6    6.4
P    -2.9   -5.1    3.9
H    -3.1    0.8   -6.3
H    -3.0    0.8    6.4
H     6.6   -1.3    2.1
H     0.9    3.9    5.9
I    -0.8    6.5   -2.9
H     0.8   -3.7   -6.1
C     1.8   -5.0   -4.9
I    -5.5   -3.2    3.6
I     3.7    6.0   -2.0
H    -1.5    0.4    7.2
H     4.9   -1.3   -5.4
I     2.3   -0.8    7.0
H     5.9    0.7   -4.5
H     7.4   -0.2    1.2
H     0.8   -3.7    6.5
H    -2.5    7.2   -0.2
H     2.2   -4.3    5.9
I    -3.3    4.0   -5.6
P     6.1    3.9   -2.4
P    -7.2   -0.6   -2.4
I     3.4    5.9    3.6
C    -6.9    3.4    0.2
C    -2.6    0.3    7.2
I    -0.4   -7.2   -2.8
N     1.4   -4.5   -6.2
H     0.9    3.9   -6.8
I    -7.8   -0.5    0.8
N     1.4    4.6   -6.2
N    -2.9   -1.2    7.2
I     6.7    4.2    0.8
H     2.3    4.8    5.9
H    -7.5    2.5   -0.1
H    -6.8    4.1   -0.6
H     0.9   -5.2    5.9
N     1.4   -4.5    6.4
H     6.3   -1.6   -4.6
N     1.5    4.6    6.4
I    -1.0    6.7    4.3
I    -0.1   -6.9    4.2
N     5.9   -1.2   -5.4
H     2.4   -6.0   -5.0
P    -7.1   -0.5    3.9
I    -5.2    6.0   -2.0
P     6.0    4.0    3.9
H     0.9    5.4   -6.1
C     6.2    0.3   -5.4
I     6.6   -4.9    0.8
P     6.1   -5.2   -2.4
H     2.2   -4.3   -6.8
I    -3.4   -5.1   -5.6
H    -2.2    7.8    2.1
H    -4.0   -1.3    7.2
H    -7.1   -4.3    1.8
H    -6.8   -5.0   -0.6
C    -3.0    8.0    0.2
H     0.9    5.4    6.5
H    -6.0   -6.1    0.6
H    -2.5   -1.6    8.0
H     0.8   -5.2   -6.8
H     5.8    0.8   -6.3
H     2.4    3.1    7.6
H    -4.0    7.6    0.5
H     2.3    4.8   -6.8
H     5.8    0.8    6.4
H    -7.0    4.8    1.8
N    -7.6    4.0    1.4
I    -0.1    2.2   -8.4
I    -3.3    4.0    7.0
H    -3.0    0.7    8.1
H    -7.8    3.3    2.1
I    -1.1   -2.4   -8.3
I    -6.6   -0.8   -5.6
I    -5.4    5.9    3.6
I     1.1    8.6    0.8
H    -6.5    3.1   -5.0
P     6.0   -5.1    3.9
H     4.9   -1.3    7.2
I     5.6    4.0   -5.6
I     4.0   -7.6   -2.1
H    -6.4   -4.3   -4.4
P     1.7   -0.5   -8.7
I     8.0   -2.6   -2.9
N    -2.3    8.5    1.4
C     1.9    4.1    7.8
P     1.7    8.5   -2.4
C    -7.0   -5.7    0.2
H     4.8    7.6    0.5
H     6.3   -1.6   -6.3
H    -1.4    8.9    1.2
H     6.3   -1.6    6.4
H    -2.5    7.5   -4.6
H    -6.4    4.8   -4.4
H     7.3    0.4   -5.5
I     8.5    1.9   -2.8
I     7.8   -2.4    4.3
N    -7.6   -5.1    1.4
I    -4.8   -7.6   -2.1
H     1.0    3.9    8.4
I    -3.3   -5.1    7.0
H    -3.1    8.8   -0.5
I     5.5   -5.1   -5.6
N     5.9   -1.2    7.2
C     1.8   -5.0    7.8
C    -7.0    4.1   -4.9
I     4.3   -7.8    3.5
H    -1.5   -9.3    1.2
C     6.3    0.3    7.2
H     2.5   -4.3    8.2
H     6.4    7.2   -0.2
H    -3.0   -8.9    1.9
H    -8.5    4.4    1.1
P     1.8    8.6    3.9
I     1.0   -9.6    0.8
I    -4.6   -7.8    3.5
I    -6.6   -0.8    7.0
H    -7.9    3.9   -4.3
I    -9.2    1.9   -2.8
H    -6.6   -4.3    5.9
I     5.6    4.0    7.0
H    -8.6   -4.7    1.1
C     5.8    8.0    0.2
H     2.5    4.8    8.2
H    -2.9    9.3    1.9
H     0.9   -5.2    8.4
H    -7.8   -5.8    2.1
C    -7.1   -5.0   -4.9
H     2.4   -6.0    7.6
H    -3.3   -9.4   -0.5
I     9.9   -0.5    0.8
H    -3.1   -8.4   -4.5
I     8.8    2.2    4.2
H    -7.6   -6.6   -0.1
P    -2.9    4.0   -8.8
H    -6.6    4.8    5.9
N    -2.9    7.9   -5.4
I    -0.3    1.9    9.9
H     5.9    0.7    8.1
N    -2.4   -9.7    1.4
H    -2.5    7.5   -6.3
I    -0.8   -2.6    9.7
P     1.6   -9.7   -2.4
H    -2.5    7.5    6.4
I    -9.0    2.2    4.2
H    -6.5   -6.0   -5.0
I     3.4   -3.2   -9.1
I     4.3    1.3   -9.2
H     9.2    4.4    1.1
H    -4.0    7.8   -5.4
H     7.4    0.4    7.2
I     2.3    8.3   -5.6
I     5.5   -5.1    7.0
I    -4.6    1.3   -9.2
H     9.2   -4.7    1.1
H     6.4   -1.6    8.0
P     1.7   -0.6   10.2
H   -10.3   -0.2    1.2
H    -8.0   -5.2   -4.3
H    -1.6   -8.7   -5.5
H    -6.7   -4.3   -6.8
H    -6.4    3.1    7.6
H     6.7    7.8    2.1
P     1.7   -9.6    3.9
H     5.7    8.8   -0.5
I    -9.7   -2.6   -2.9
H    10.2    2.5   -0.1
P    -2.9   -5.1   -8.8
H    -7.9    3.9    5.9
H    -6.6    4.8   -6.8
H     4.9    7.8   -5.4
C    -2.7   -8.8   -5.4
C    -3.2  -10.2    0.2
N    -7.4    4.6   -6.2
N    -7.5   -4.5   -6.2
H    10.0    3.3    2.1
I     8.1    6.5   -2.9
I    -1.0    6.7   -8.3
H    -8.1   -3.7   -6.1
P    10.5   -0.6   -2.4
N    -7.4    4.6    6.4
N     6.5    8.5    1.4
N    -7.4   -4.5    6.4
H    -2.3   -1.3  -10.5
H     6.4    7.5   -4.6
H     5.9   -8.9    1.9
I    -0.2   -6.9   -8.4
H    -2.3  -10.4    2.1
H    -3.1   -8.4   -6.3
H    -3.1   -8.3    6.4
H    -8.0   -3.7    6.5
H     5.6   -9.4   -0.5
N    10.2    4.0    1.4
H    -1.5    9.5   -5.5
I    -9.9   -2.4    4.3
H     1.1    3.3  -10.5
N    -2.9    7.9    7.2
I    -5.5   -3.2   -9.1
H    -8.0    3.9   -6.8
C    -2.6    9.4   -5.4
H     5.8   -8.4   -4.5
I     2.3    8.3    7.0
H    -3.0    0.2  -10.8
H     6.0    9.3    1.9
H    -3.0    9.8   -4.5
C    -7.0    4.1    7.8
H    -2.5    7.5    8.0
H    -8.0   -5.2    5.9
I     7.9    6.7    4.3
H    -6.4   -4.3    8.2
P    10.6   -0.5    3.9
N     5.9    7.9   -5.4
P    -2.7    3.9   10.3
P    -7.2   -0.5   -8.7
I    -0.3   11.0   -2.8
P     6.0    4.0   -8.8
I     3.4    5.9   -9.1
C    10.8    3.4    0.2
H    -2.6  -11.1   -0.2
H    -3.9    7.8    7.2
N   -11.3   -0.6    1.4
H   -11.1   -1.3    2.1
H    -4.1  -10.6    0.5
P    -7.2    8.5   -2.4
N    10.1   -5.1    1.4
H     9.8    3.9   -4.3
H    -1.5   -8.7    7.2
I     4.1    1.5   10.5
H    -6.3    4.8    8.2
H    -8.0    5.4   -6.1
I     8.5   -7.2   -2.8
N    -2.4   -0.6  -11.2
H   -11.4   -2.0   -0.2
I     4.1   10.6   -2.1
I     2.2   -9.9   -5.6
H    -1.5   -0.2  -11.5
H     4.7  -10.6    0.5
C    -7.0   -5.0    7.8
I    -7.7    8.6    0.8
I     3.6   -3.1   10.6
H     6.3    7.5   -6.3
H     7.5    8.9    1.2
H    -8.0    5.4    6.5
H    -6.5   -6.0    7.6
I     7.8   -2.4   -8.3
I    -4.7    1.5   10.5
H    10.7   -4.3    1.8
H     9.9   -5.8    2.1
H     6.4    7.5    6.4
H    11.0    4.1   -0.6
C    -2.6   -8.8    7.2
H     1.4   11.6   -0.1
N     6.4   -9.7    1.4
H    -8.0   -5.2   -6.8
C     5.7  -10.2    0.2
I    -0.8    6.5    9.7
H     5.0    7.8    7.2
H   -10.4    0.4   -5.5
P     5.9   -5.1   -8.8
I    -4.7   10.6   -2.1
P    -2.8   -5.2   10.3
P    -7.1    8.6    3.9
H     1.8   -4.3  -10.9
I     4.4   10.5    3.5
I   -11.1    4.2    0.8
H     9.8   -5.2   -4.3
H    10.7    4.8    1.8
I    -4.5   10.5    3.5
I     8.7   -6.9    4.2
I     1.0   -0.5  -11.9
H     5.7   -8.4   -6.3
H     7.4   -9.3    1.2
H   -11.8    0.2    1.9
H     5.8   -8.3    6.4
H    -1.4    9.5    7.2
H    -2.6  -10.8   -4.6
I    -9.7    6.5   -2.9
H    10.9   -5.0   -0.6
N    -3.0  -10.3   -5.4
H     1.8    4.8  -10.9
I    -6.6    8.3   -5.6
H     9.7   -3.7   -6.1
C   -12.0   -1.1    0.2
N     1.2    4.0  -11.3
H     1.0   -5.8  -10.5
I    -9.3   -7.2   -2.8
C     6.2   -8.8   -5.4
H    -3.0   -8.4    8.1
H    -3.0    9.9   -6.3
H     9.8    3.9    5.9
H   -12.1   -0.3   -0.5
I    -0.0   11.3    4.2
H    10.2   -6.6   -0.1
H    -3.0    9.9    6.4
C    -2.5    9.4    7.2
I    -9.0   -6.9    4.2
I    -0.9  -11.7   -2.9
I    -5.5    5.9   -9.1
H    -7.9    3.9    8.4
I   -11.1   -4.9    0.8
H    11.8    3.0    0.6
C    10.8   -5.7    0.2
I    -5.2   -3.1   10.6
I    -0.4   -7.2    9.9
H     9.7   -3.7    6.5
H     5.9    0.2  -10.8
N     6.0    7.9    7.2
I    -1.1  -11.5    4.3
I     2.2   -9.9    7.0
H     5.9    9.8   -4.5
I     8.7    2.2   -8.4
H     0.3    4.4  -11.6
P    -7.3   -9.7   -2.4
I    -7.8   -9.6    0.8
P     1.7    8.6   -8.7
H    -4.1  -10.4   -5.4
H   -11.4   -1.6   -4.6
N     1.2   -5.1  -11.3
C    10.7    4.1   -4.9
H     3.0   12.1    0.6
I    11.1   -0.8   -5.6
H     6.6   -1.3  -10.5
H     9.8    3.9   -6.8
H     0.3   -4.7  -11.6
I    -9.0    2.2   -8.4
P   -11.6    3.9   -2.4
H     6.6  -10.4    2.1
P    -7.2   -0.6   10.2
C     6.3    9.4   -5.4
H     9.8   -5.2    5.9
H    -3.2   -0.3   12.2
P     6.1    3.9   10.3
P    -7.2   -9.6    3.9
H     7.3   -8.7   -5.5
H   -10.4    0.4    7.2
C     2.0   12.5    0.2
