         400
 sphere cut out from bulk 
I     1.3   -1.4    0.1
P     0.5    1.0    2.1
I    -1.9    1.4    0.0
P     0.5    0.9   -2.3
I     2.0    2.9   -0.0
H     0.8   -3.4   -1.2
H    -3.1   -2.2    0.3
H    -4.0   -0.7    0.3
I    -1.4   -1.0   -3.8
H    -3.2   -1.4    2.5
I    -1.3   -0.8    4.1
C    -4.0   -1.7    0.6
H    -3.4    2.8   -1.3
N     0.6   -4.3   -1.6
H     4.2   -2.2    0.2
H    -0.4   -4.6   -1.2
N    -4.0   -1.7    2.1
I     2.8    0.2    4.1
I     3.1    0.2   -3.9
H    -0.2   -3.6    3.5
H    -0.3   -3.7   -3.4
H     4.3   -1.2    2.5
H     5.1   -0.7    0.3
I    -0.1    3.5   -3.9
I    -0.1    3.3    4.2
H     1.3   -5.0   -1.3
H     1.0    5.2   -0.1
C     0.5   -4.3   -3.1
H    -4.9   -2.2    0.2
C     5.1   -1.7    0.6
H     1.5   -3.9   -3.5
H     4.1    3.3   -1.3
H     1.2   -3.0    4.5
H    -4.8   -1.2    2.5
H    -4.2   -2.7    2.5
N    -4.0    3.5   -1.7
C     0.8   -3.9    4.1
I    -2.4   -5.1    0.0
N     5.0   -1.7    2.1
H     1.4   -4.4    3.4
H    -0.0    5.4    2.1
H    -4.1    2.4   -3.5
H    -3.7    4.5   -1.3
H    -3.0    3.8   -3.5
H    -5.0    3.3   -1.3
H     4.9   -2.7    2.5
C    -4.0    3.4   -3.2
N     0.6    6.1    0.3
H    -4.2    2.7    3.8
H    -0.4    6.2   -0.1
H     0.4   -5.3   -3.5
N     5.1    3.5   -1.7
H     6.0   -2.2    0.3
C     0.7    6.2    1.7
H     4.9    2.4   -3.5
H     5.7    2.8   -1.3
H     1.7    6.0    2.1
H     5.9   -1.4    2.5
P     0.5    0.9    6.5
H    -2.4    4.1    4.5
H     1.0    0.1   -6.6
H     4.9    2.7    3.8
H    -0.5    0.8   -6.8
H    -3.6    2.2    5.4
H     1.0    1.8   -6.6
C     5.1    3.4   -3.2
H     4.3    4.1   -3.6
C    -4.1    2.9    4.8
P    -4.0   -1.8   -5.5
H     1.2    6.9   -0.1
N     0.4   -4.8    5.2
H     5.3    4.5   -1.3
I    -3.0    6.4    0.0
N     0.6    0.9   -7.0
I    -6.0    0.2   -3.9
I     2.7   -6.7    0.0
H    -4.8    4.1   -3.6
H     3.9    3.1    5.2
H    -0.3   -4.3    5.9
I     4.3   -4.4   -3.9
I     7.2    1.4    0.0
N    -3.4    4.2    4.9
H    -3.0   -1.6    6.5
H    -0.1   -5.6    4.8
H     0.4    7.2    2.1
I    -6.3    0.2    4.1
C     4.9    2.9    4.8
I    -4.7   -4.4   -3.9
I     4.4   -4.6    4.1
I    -7.0    2.9   -0.0
P     5.1   -1.8   -5.5
H    -3.9    5.0    4.4
I    -4.7   -4.6    4.1
H     1.2   -5.1    5.7
I    -7.8   -1.4    0.1
H    -5.1    3.1    5.2
H     6.1    3.8   -3.5
H     4.5   -0.8    6.6
H     5.5    2.2    5.4
H    -4.6   -0.8    6.6
C    -4.0   -1.7    6.9
H    -3.3    4.5    5.9
I    -3.1    0.9   -7.5
I     1.3   -1.8    7.9
P     0.6    6.2   -5.5
I     2.5   -2.4   -7.5
P    -3.9   -7.0    2.1
H     4.5   -2.6    6.5
H     0.3    5.2    6.6
P    -4.0   -7.0   -2.3
H    -4.6   -2.6    6.5
I    -2.1    1.6    7.9
I     6.7   -5.1    0.0
H     5.2    5.0    4.4
I     3.3    6.8   -3.9
C     0.7    0.9   -8.5
I    -2.2   -3.7   -7.5
N     5.7    4.2    4.9
I     7.7   -1.0   -3.8
I    -1.3   -7.6   -3.8
C     5.0   -1.7    6.9
I    -1.6   -7.5    4.2
I     2.5    2.8    7.9
I     7.8   -0.8    4.1
H     0.3   -8.6    2.1
I     3.6    6.9    4.1
I     6.1    6.4    0.0
H     1.1   -8.8   -0.1
H     0.3   -0.1   -8.9
P    -8.6    1.0    2.1
P    -8.6    0.9   -2.3
P     5.1   -7.0    2.1
H     1.8    0.9   -8.7
P     5.1   -7.0   -2.3
H     6.0   -1.6    6.5
H    -8.3   -3.4   -1.2
I    -1.3    8.1   -3.8
I     2.4    4.2   -7.6
H     6.6    4.1    4.5
H     0.2    1.7   -8.9
H    -7.6   -3.9   -3.5
I    -6.4   -6.7    0.0
C     0.8    6.1    6.9
H     1.8    6.1    6.7
I    -1.5    8.2    4.2
H    -7.8   -5.0   -1.3
H     5.8    4.5    5.9
N    -4.0   -1.7    8.4
H    -3.5   -0.8    8.7
H    -7.6   -4.4    3.4
I     2.8    9.1    0.0
I    -2.1   -4.9    7.9
H    -0.4   -9.5   -0.1
H    -7.8   -3.0    4.5
H     0.3    7.0    6.5
N     0.5   -9.6    0.3
I     5.9    0.9   -7.5
H    -8.1    5.2   -0.1
I    -2.0    5.6   -7.6
N    -8.5   -4.3   -1.6
H    -3.5   -2.5    8.7
H    -7.4    6.0    2.1
H    -3.5   -6.1   -6.7
I    -5.8    6.8   -3.9
C     0.6   -9.6    1.7
P    -3.9    8.7    2.1
I    -5.5    6.9    4.1
I    -3.0   -9.3    0.0
P     9.6    1.0    2.1
H     4.1   -1.7    8.8
P    -3.9    8.7   -2.3
P     9.6    0.9   -2.3
H     8.7   -4.6   -1.2
N     5.1   -1.7    8.4
P     0.5   -4.4   -8.9
C    -8.3   -3.9    4.1
C    -8.5   -4.3   -3.1
H     1.6   -9.8    2.1
H    -3.3   -0.7   -9.5
H     8.8   -3.7   -3.4
H    -5.0   -1.7    8.8
H     8.9   -3.6    3.5
I     3.2   -8.9   -3.9
I    -6.5   -2.4   -7.5
I     2.3   -6.3    7.8
P    -4.0   -6.9    6.5
I     3.5   -8.8    4.1
P     5.2    8.7    2.1
H     5.5   -0.8    8.7
I     8.9    3.5   -3.9
H     1.1    5.3    8.9
H    -8.0    0.1   -6.6
P    -3.9    3.6   -8.9
I     8.9    3.3    4.2
P     5.2    8.7   -2.3
I     1.3   -7.1   -7.5
N     0.6    6.1    8.4
N    -8.5    6.1    0.3
I    -3.1    6.1    7.9
H     4.1   -7.0   -6.7
I    10.4   -1.4    0.1
H    -9.2   -3.6    3.5
H    -7.9    6.9   -0.1
H     9.9   -3.4   -1.2
H     0.9  -10.5   -0.1
H    -0.1  -10.3    2.1
H    -9.4   -4.6   -1.2
C    -8.4    6.2    1.7
H    -0.4    6.1    8.7
I    -9.2    3.5   -3.9
H     5.5   -6.1   -6.7
I    -9.2    3.3    4.2
H    -8.1    1.8   -6.6
I    -6.5    2.8    7.9
H    -9.4   -3.7   -3.4
H     5.6   -2.5    8.7
I     6.9    1.6    7.9
N    -4.0   -6.9   -7.1
N     9.6   -4.3   -1.6
H     8.7    6.2   -0.1
H    -8.7   -5.3   -3.5
H     9.1    5.4    2.1
P    -8.5    0.9    6.5
P     5.1   -6.9    6.5
H    -9.1    5.4    2.1
I     6.9   -3.7   -7.5
P     0.6   -4.3    9.9
I    -2.4   10.6    0.0
H    -3.5   -7.7   -6.7
H    -5.0   -7.0   -6.7
H     1.3   10.7   -1.3
P     5.1    3.6   -8.9
H     0.2   -8.8    6.5
H    -7.9   -5.1    5.7
H     0.5   10.4   -3.5
I    -6.7    4.2   -7.6
H    -3.4    8.0   -6.7
C     9.6   -4.3   -3.1
H     8.6    0.8   -6.8
I    -6.3    9.1    0.0
P     0.6   -9.6   -5.5
I   -11.0    1.4    0.0
N    -8.5    0.9   -7.0
I     6.0   -9.3    0.0
H    -3.6   -3.0  -10.0
N    -3.4   -1.0  -10.5
N     5.1   -6.9   -7.1
H     3.9   -2.1  -10.2
H     5.7   -0.7   -9.5
H     1.3    5.4   -9.7
I   -10.4   -0.8    4.1
N    -8.7   -4.8    5.2
H    -0.0   10.1    4.8
H    -0.3   11.1   -1.2
I    -5.6   -8.8    4.1
I   -10.5   -1.0   -3.8
H    -2.4   -1.1  -10.9
I    -7.8   -1.8    7.9
P    -4.0    3.5   10.0
H     1.0    7.0    8.8
C     9.8   -3.9    4.1
H    -9.5    6.2   -0.1
I    -5.8   -8.9   -3.9
H    10.1    5.2   -0.1
H    -7.3    0.9   -8.7
H    -0.2    6.2   -9.6
I     7.5   -7.5    4.2
H     8.8   -4.3    5.9
H     9.5   -5.3   -3.5
I    -0.1   -2.0  -11.3
H    -8.7    7.2    2.1
N     9.7    6.1    0.3
I    11.1    2.9   -0.0
N     0.6   11.4   -1.6
I     7.7   -7.6   -3.8
H    10.3   -5.0   -1.3
I     1.4    8.7   -7.5
I     7.0   -4.9    7.9
H     4.5   -6.0   -8.9
C    -4.2   -2.3  -10.6
H    -5.2   -2.1  -10.2
H    -7.2    6.1    6.7
P    -3.9    8.8    6.5
I     5.9    6.1    7.9
P     9.6    0.9    6.5
H    10.3   -3.0    4.5
H     9.0   -5.6    4.8
H    -0.0    4.9  -10.6
C     9.7    6.2    1.7
H    -4.6   -6.0   -8.9
H    -3.0   -6.9   -8.9
H    -3.9   -0.2  -11.0
H     5.6   -7.7   -6.7
P     5.1    3.5   10.0
C    -4.1   -6.9   -8.6
H    -9.5    0.8   -6.8
N     0.4    5.7  -10.2
I    -1.5    3.0  -11.3
H    10.6   -3.9   -3.5
H     4.2    8.8   -6.7
I     7.0    5.6   -7.6
H    -9.2   -5.6    4.8
N     9.5   -4.8    5.2
H     5.5   -3.0  -10.0
P    -8.5    6.2   -5.5
H    -9.3   -4.3    5.9
H     1.8   -9.6    6.7
C     0.6   11.4   -3.1
H    -8.0   -8.8   -0.1
I     7.8    8.1   -3.8
H     5.7    8.0   -6.7
H    10.5   -4.4    3.4
C     0.7   -9.6    6.9
C     4.9   -2.3  -10.6
H     1.5   11.3    3.4
I    -1.3   -2.4   11.6
C    -8.3    0.9   -8.5
I     7.6    8.2    4.2
N     9.6    0.9   -7.0
H     0.4   -0.1   11.9
N    -3.9    8.8   -7.1
I     3.6    1.7  -11.3
H    -3.8  -11.3   -1.3
N     5.7   -1.0  -10.5
H     9.4    7.2    2.1
H    -4.9    8.8   -6.7
I    -6.7   -6.3    7.8
H    10.1    0.1   -6.6
C     5.0   -6.9   -8.6
H    -8.7    5.2    6.6
H    -0.3    1.6   12.0
P     5.2    8.8    6.5
H     1.5    1.3   12.0
N     0.5   11.0    5.2
H    10.0    1.8   -6.6
H     5.1   -0.2  -11.0
H     1.3   10.7    5.7
H    -4.0  -10.7    4.4
H    -3.5    9.7   -6.7
C     0.6    0.9   12.3
H    10.3    6.9   -0.1
H   -12.2   -2.2    0.3
I     4.4    0.8   11.6
N     5.1    8.8   -7.1
H     0.9   12.3   -1.2
I    -1.4    4.2   11.6
C    -8.3    6.1    6.9
H     1.6   11.8   -3.5
H     0.3  -10.6    6.6
H     0.9   -8.7    8.8
H    -7.4   -9.8    2.1
H    -8.8   -8.6    2.1
H    -8.8   -0.1   -8.9
H    10.8    6.0    2.1
H     5.3  -11.3   -1.3
I     2.4    9.5    7.8
I    -4.7    0.8   11.6
H    -0.2   12.0   -3.4
I     6.7   10.6    0.0
I     3.2   -3.7   11.6
I    11.9    0.2    4.1
H     9.4    5.2    6.6
C     0.8   11.9    4.1
H   -12.2   -1.4    2.5
I   -11.5   -5.1    0.0
I     4.5   11.1    4.1
H     4.5   -7.8   -8.9
H    -0.1   12.2    3.5
H    -4.2   -2.6  -11.7
I    -4.6   11.1    4.1
H     5.1  -10.7    4.4
H    -8.8    1.7   -8.9
I    -5.5    1.7  -11.3
H    -4.6   -7.8   -8.9
H    -2.5  -11.6    4.5
I     4.4   11.3   -3.9
H    -4.5    7.9   -8.9
P     9.7    6.2   -5.5
I     2.8   -5.1  -11.4
H     4.6    7.9   -8.9
I    12.1    0.2   -3.9
H     6.0   -6.9   -8.9
N     0.5   -9.6    8.4
I    -2.1  -10.1   -7.6
H     6.6   -1.1  -10.9
H   -12.4    2.8   -1.3
H    -3.1  -11.9   -3.5
H    -0.2   11.4    5.9
I    -4.7   11.3   -3.9
H     8.6   -9.5   -0.1
H    10.3   -5.1    5.7
N    -8.5   -9.6    0.3
I    -3.2   -9.6    7.9
H     9.4   -8.6    2.1
I    -0.2  -12.2   -3.9
H     4.8   -2.6  -11.7
C    -8.5   -9.6    1.7
H     4.2  -11.6   -3.6
I    -1.3   -6.0  -11.3
H     9.4   -0.1   -8.9
