         400
 sphere cut out from bulk 
I    -0.9   -0.8   -0.0
H     1.1    1.1    1.9
P     1.7   -2.8    0.0
P    -2.8    1.8    0.0
H    -1.9   -1.7   -2.3
C     1.2    1.2    3.0
H     2.6    0.6   -2.3
H     0.5    1.7   -3.0
I     3.6   -0.2   -0.0
I    -0.3    3.7    0.0
H     0.3    1.5    3.4
H     1.6    0.3    3.4
H     1.6    2.8   -2.2
H    -1.8   -1.9    3.0
C     1.5    2.2   -3.1
N     2.6    1.2   -3.1
H    -1.0   -2.7   -3.2
N    -1.9   -2.3   -3.2
H    -3.4   -2.2    2.1
I     1.6   -2.8   -3.2
N     2.2    2.3    3.3
H    -2.1   -3.4    2.2
C    -2.6   -2.6    2.7
I    -2.9    1.7   -3.2
I     1.7   -3.0    3.2
H     2.0    3.2    2.9
H     3.2    2.0    2.9
H     2.5    0.6   -4.0
I    -3.0    1.8    3.2
H    -1.9   -1.7   -4.0
H     3.5    1.7   -3.2
H     1.5    2.9   -4.0
I    -0.3   -5.3    0.0
H    -2.9   -3.9   -2.2
I    -5.4   -0.2   -0.0
C    -3.0   -3.3   -3.1
H     2.4    2.4    4.3
H    -4.0   -2.8   -3.1
N    -3.2   -3.2    3.9
I     4.2    4.3    0.0
H    -2.9    5.1   -2.2
H    -2.1    5.6    2.2
H    -3.7   -2.5    4.5
H    -2.9   -3.9   -4.0
I    -0.2   -0.2    6.3
I     4.2   -4.7    0.0
H    -2.5   -3.7    4.6
H     5.6   -2.2    2.1
I    -4.7    4.3    0.0
P     1.7    6.2    0.0
P     6.2    1.8    0.0
I    -1.0   -0.9   -6.4
H     5.0   -2.8   -3.1
H    -5.5    1.7   -3.2
H    -3.9   -3.9    3.7
I    -4.8   -4.7    0.0
H     1.6   -6.1   -2.2
H     1.9   -5.8    2.9
H    -5.8    2.0    2.9
H    -6.4    0.6   -2.3
I     6.0    1.8    3.2
I     1.7    6.0    3.2
H    -1.0    6.3   -3.2
I     6.1    1.7   -3.2
H    -2.9    5.1   -4.0
P     1.6   -2.8    6.4
P    -2.8    1.6    6.4
C    -3.0    5.7   -3.1
I     1.7    6.2   -3.2
P    -2.8    1.8   -6.4
P     1.7   -2.8   -6.4
N    -6.4    1.2   -3.1
I     3.5   -0.1   -6.4
I    -0.1    3.5   -6.4
H     5.0   -3.9    3.7
C    -2.6    6.4    2.7
H     5.3   -2.5    4.5
H    -3.9    5.1    3.7
C     6.4   -2.6    2.7
H    -2.5    5.3    4.6
H     1.5   -6.1   -4.0
C     6.0   -3.3   -3.1
H     6.1   -3.9   -2.2
C     1.4   -6.8   -3.1
H     7.0   -1.7   -2.3
H    -6.5    0.6   -4.0
N    -1.9    6.7   -3.2
N     5.8   -3.2    3.9
N    -3.2    5.8    3.9
I     4.3   -1.0    6.4
P    -2.8   -7.2    0.0
P    -7.3   -2.8    0.0
N     2.2   -6.7    3.3
N    -6.7    2.3    3.3
I    -1.1    4.3    6.4
H     0.5   -7.3   -3.0
H    -3.4    6.8    2.1
H    -1.9    7.3   -2.3
H    -1.8    7.1    3.0
H     6.8   -3.4    2.2
H     7.1   -1.9    3.0
I    -4.7   -1.0    6.4
H    -4.0    6.2   -3.1
I    -1.1   -4.7    6.4
N     7.1   -2.3   -3.2
H     5.1    5.1    3.7
I     3.4    3.5    6.5
H    -7.8    1.1    1.9
I     8.1   -0.8   -0.0
H    -7.4    0.3    3.4
H     1.1   -7.9    1.9
H     3.2   -7.0    2.9
H     2.4   -6.6    4.3
H     0.3   -7.4    3.4
H    -7.4    2.8   -2.2
H    -7.0    3.2    2.9
I    -0.8    8.2   -0.0
H    -6.6    2.4    4.3
H     6.0   -3.9   -4.0
H     6.1    5.1   -2.2
H     7.0   -1.7   -4.0
C    -7.7    1.2    3.0
C     1.2   -7.8    3.0
C    -7.5    2.2   -3.1
I    -5.5   -0.1   -6.4
I    -2.9   -7.2   -3.2
I    -0.1   -5.5   -6.4
I    -3.0   -7.2    3.2
I    -7.3   -3.0    3.2
I    -7.3   -2.8   -3.2
H    -1.9    7.3   -4.0
H     2.1    0.9   -8.3
H     5.0    6.2   -3.1
H     0.9    2.1   -8.3
H     3.5   -7.3   -3.2
H     6.5   -3.7    4.6
H    -3.7    6.5    4.5
N     2.5   -7.8   -3.1
C     6.0    5.7   -3.1
H     6.1    5.1   -4.0
H    -7.4    2.9   -4.0
H     1.5    0.5    8.8
I     4.4    4.4   -6.5
H    -2.0   -2.0   -8.5
P     6.1    1.6    6.4
H     8.0   -2.7   -3.2
H     2.6   -8.4   -2.3
P     1.6    6.2    6.4
P     1.8    6.2   -6.4
I     4.3   -4.6   -6.5
P     6.2    1.8   -6.4
N     1.4    1.4   -8.9
N     5.8    5.8    3.9
I    -4.6    4.4   -6.5
H     6.9    5.6    2.2
H     5.6    6.8    2.1
I     3.4   -5.5    6.5
H    -8.5    1.7   -3.0
H     0.7    0.7   -9.1
I    -5.6    3.5    6.5
I    -4.6   -4.6   -6.5
C     6.4    6.4    2.7
I     8.7    3.7    0.0
H    -8.7    1.5    3.4
H     1.5   -8.7    3.4
I     3.6    8.8   -0.0
H    -3.1   -1.7    8.8
P     6.2   -7.2    0.0
H    -5.8   -7.0    2.9
H     2.5    2.7    8.8
P    -7.2    6.2    0.0
H    -7.0   -5.8    2.9
H     6.5    5.3    4.6
H     5.3    6.5    4.5
H     2.5   -8.4   -4.0
H    -5.5   -7.3   -3.2
H     0.4    1.7    9.7
C     1.4    1.1    9.7
I    -0.9   -9.8   -0.0
H    -7.4   -6.1   -2.2
I     3.6   -9.2   -0.0
I    -9.8   -0.8   -0.0
H    -2.1   -3.9    8.8
I     5.9   -7.2    3.2
I    -9.2    3.7    0.0
I    -7.2    6.0    3.2
H     9.2    1.5    3.4
I     6.1   -7.2   -3.2
N    -2.2   -2.1   -9.5
H     1.6    9.3    3.4
P    -2.8   -7.2   -6.4
N    -6.7   -6.7    3.3
I     1.6   -2.6   -9.6
P    -7.2   -2.8   -6.4
I    -2.7    1.6   -9.6
H     9.5    1.7   -3.0
I    -7.3    6.2   -3.2
I     1.5   -2.8    9.6
H    -1.1   -2.9    9.7
P    -7.4   -2.8    6.4
I    -5.6   -5.5    6.5
I    -2.9    1.6    9.6
I     8.7   -5.3    0.0
P    -2.8   -7.4    6.4
N     2.5    2.1    9.7
H     2.6    9.6   -2.3
I     8.0   -0.9   -6.4
N     7.1    6.7   -3.2
H    -6.6   -6.6    4.3
H    -1.2   -2.4   -9.9
I    -5.4    8.8   -0.0
I    -1.0    8.1   -6.4
H    -2.4   -1.2  -10.0
H    10.1    1.1    1.9
H     1.2   10.1    1.9
H    -2.0    5.0    8.8
H     3.4    1.7    9.7
N    -2.0   -3.4    9.7
H     7.1    7.3   -2.3
H    -7.5   -6.1   -4.0
C     2.0    2.0  -10.1
C    -3.1   -2.3    9.7
H     2.7    2.7   -9.8
H     7.1    7.1    3.0
N    -6.4   -7.8   -3.1
C    -7.5   -6.8   -3.1
H    -2.8   -4.1   -9.4
H     8.0    6.3   -3.2
I    -9.2   -5.3    0.0
H    -4.1   -2.9   -9.4
I    -5.4   -9.2   -0.0
H     1.5    0.5   10.6
C    10.2    1.2    3.0
C     1.2   10.2    3.0
H     2.5    9.6   -4.0
H     5.9   -1.7    8.8
I     8.7   -0.2    6.3
H   -10.0   -2.7   -3.2
H    -6.4   -8.4   -2.3
H    -6.9    0.9   -8.3
H     0.9   -6.9   -8.3
C    -3.2   -3.2   -9.8
I    -0.2    8.8    6.3
H     7.1    7.3   -4.0
H    -2.8    4.9   -9.4
H     4.8   -2.9   -9.4
H    -4.1   -2.9    9.8
H     2.5    1.1  -10.7
N     2.6   10.2   -3.1
H     1.2    2.4  -10.7
P    10.7   -2.8    0.0
I     7.9    4.3    6.4
I     4.3    8.0    6.4
H     2.4   -6.3    8.8
H    -1.9  -10.7   -2.3
H    10.5    0.3    3.4
H     0.3   10.5    3.4
P    -2.8   10.8    0.0
C    10.4    2.2   -3.1
H     2.5    2.8   10.5
H     0.5   10.7   -3.0
H    10.6    2.8   -2.2
I    -0.3   -9.2    6.3
H     6.9   -2.0   -8.5
I    -9.2   -0.2    6.3
H    -3.0   -1.7   10.6
I     7.9   -4.7    6.4
I    -4.7    8.0    6.4
H    -2.0    7.0   -8.5
H    -5.5    1.7    9.7
H   -10.9   -1.7   -2.3
H    -6.5    2.7    8.8
H    -7.9   -7.9    1.9
H     4.9   -2.9    9.8
H    -6.5   -8.4   -4.0
C    -7.8   -7.8    3.0
N    -2.0    5.6    9.7
H   -10.8   -1.9    3.0
H    -2.0   -4.0   10.5
I    10.6   -2.8   -3.2
P     6.1   -7.2   -6.4
H    -1.9  -10.9    3.0
P    -7.2    6.2   -6.4
I     6.0    1.6    9.6
H    -1.1    6.1    9.7
I     3.5    8.9   -6.4
I     1.5    6.2    9.6
I     8.9    3.5   -6.4
I     8.1    8.2   -0.0
I    10.7   -3.0    3.2
P     6.1   -7.4    6.4
H    -7.5    0.5    8.8
P    -7.4    6.2    6.4
N   -10.9   -2.3   -3.2
I    -2.8   10.7   -3.2
H    -2.0  -10.7   -4.0
I     6.3    1.6   -9.6
H    10.5    2.9   -4.0
H    -8.5   -7.3   -3.0
C     5.9   -2.3    9.7
I     1.6    6.4   -9.6
I     3.4   -9.1   -6.4
I    -3.0   10.8    3.2
H     3.5   10.7   -3.2
I    -9.1    3.5   -6.4
H     2.1   -8.1   -8.3
C     1.5   11.2   -3.1
H    10.9    3.2    2.9
H   -10.9   -1.7   -4.0
H    -8.1    2.1   -8.3
N    -7.6    1.4   -8.9
N     1.3   -7.6   -8.9
H    -6.4    9.6   -2.3
H    11.5    0.6   -2.3
H   -11.1   -3.4    2.2
N    -6.5    2.1    9.7
H     3.2   11.0    2.9
I    -1.0   -9.9   -6.4
H    -2.0    5.0   10.5
H    -3.0    7.3    8.8
H    -3.4  -11.1    2.1
C     5.8   -3.2   -9.8
C    -3.2    5.8   -9.8
N    -1.9  -11.3   -3.2
I   -10.0   -0.9   -6.4
H    -3.3   -3.3  -10.9
H     6.9   -3.9    8.8
P   -11.8    1.8    0.0
N    11.2    2.3    3.3
P     1.7  -11.8    0.0
H    -6.2    2.7   -9.8
N     6.8   -2.1   -9.5
H     6.1   -4.1   -9.4
H    -7.4   -8.7    3.4
N    -2.1    6.9   -9.5
H    -4.1    6.1   -9.4
H     2.7   -6.3   -9.8
N     2.3   11.3    3.3
H    -8.7   -7.4    3.4
H     6.5   -1.2  -10.0
H    -1.2    6.6   -9.9
N    11.5    1.2   -3.1
N     2.5   -6.9    9.7
H     1.6   11.8   -2.2
H     0.4   -7.3    9.7
H    -9.9    6.3   -3.2
C   -11.6   -2.6    2.7
H    11.5    0.6   -4.0
H    -1.0  -11.7   -3.2
C    -3.1    6.7    9.7
C    -2.6  -11.6    2.7
I     8.8   -5.5   -6.4
H    -4.1    6.1    9.8
H     6.1    4.9   -9.4
H     4.9    6.1   -9.4
H    -6.4    9.6   -4.0
I    -5.5    8.9   -6.4
H     1.5   -8.5    8.8
H     6.9    5.0    8.8
H     9.5   -7.3   -3.0
H     6.0   -1.7   10.6
I     1.6  -11.8   -3.2
H     9.2   -7.4    3.4
C    -7.6    1.1    9.7
H     0.6   -8.3   -9.1
H    -7.4    9.3    3.4
H    -8.3    0.7   -9.1
P    10.7    6.2    0.0
H    11.3    2.4    4.3
N     7.0   -3.4    9.7
I   -11.8    1.7   -3.2
I    -5.5   -9.1   -6.4
H    -5.5   10.7   -3.2
I    -2.7   -7.4   -9.6
I    -7.4   -2.6   -9.6
H    10.6   -6.1   -2.2
I    -9.1   -5.5   -6.4
P     6.2   10.8    0.0
C    -7.0    2.0  -10.1
H     2.4   11.4    4.3
N    -6.4   10.2   -3.1
H     2.5   -6.2   10.5
I    -3.0   -7.4    9.6
C     2.0   -7.0  -10.1
I    -7.4   -2.8    9.6
I     1.7  -12.0    3.2
I   -12.0    1.8    3.2
H     4.9    6.1    9.8
H    -6.5    1.1  -10.7
C     1.4   -7.9    9.7
I    12.6   -0.2   -0.0
H     3.4   -7.3    9.7
H   -11.1    5.6    2.2
H     1.5   11.9   -4.0
H     1.2   -6.6  -10.7
H    -6.5   -6.3    8.8
I     4.3  -10.0    6.4
H     5.6  -11.1    2.1
H    -6.5    2.8   10.5
H    12.1    2.0    2.9
