         400
 sphere cut out from bulk 
H     0.5    0.5   -0.2
C     0.2    1.5    0.1
H    -0.0    1.6    1.1
H    -1.8    1.1   -0.4
N    -1.1    1.8   -0.6
H     0.9    2.2   -0.3
H    -1.1   -2.3    0.6
H    -1.0    1.8   -1.7
I     2.8   -1.4   -0.2
H    -1.4    2.8   -0.4
H     1.2   -3.0    0.5
C    -0.9   -3.3    0.2
I    -3.5   -0.6    0.2
H    -0.8   -3.3   -0.9
N     0.4   -3.7    0.8
I     1.5    0.8    3.6
H     0.4   -3.7    1.8
H    -1.7   -4.0    0.6
I    -0.6    1.6   -4.1
H     0.7   -4.7    0.5
I     3.6    3.1    0.4
P     4.3    0.4    2.0
H     3.3    2.9   -2.3
H     1.9    2.2   -4.1
I    -2.1   -2.9   -3.5
H    -0.6    4.3    2.9
H     0.8    3.0    4.4
I    -2.1    5.0    0.4
I     0.1   -3.7    4.2
C     3.3    3.4   -3.2
N     2.8    2.5   -4.3
H    -1.5    3.6    4.3
H     3.5    1.7   -4.4
P    -5.0   -2.4   -2.0
C    -0.7    4.3    4.0
H     2.6    4.3   -3.2
P     5.2   -2.4   -2.0
N     0.5    3.9    4.7
I    -4.2    2.6    3.7
H    -1.1   -5.2   -3.2
P    -2.2   -0.6   -5.8
P    -5.9    0.4    2.0
P     1.7   -1.5    5.9
H    -2.6   -4.7    3.6
H     1.3    4.6    4.4
I     4.6   -1.8    4.3
I     5.1   -0.2   -4.3
H     2.8    3.0   -5.2
H     4.3    3.8   -3.4
I    -4.4   -5.1   -0.2
I    -5.2   -0.2   -4.3
H    -0.2   -6.3   -2.4
I     6.8   -0.6    0.2
I     3.6   -4.6   -3.6
H    -1.0    5.4    4.3
H     0.4    4.0    5.7
I     1.3   -6.9   -0.3
N    -0.8   -6.2   -3.2
I     0.2    6.1   -3.5
H    -4.5   -5.1    2.2
H    -4.9   -4.1    3.6
H    -3.9    1.6    6.0
I    -5.6   -1.8    4.3
I    -6.6    3.1    0.4
H     0.9   -5.8   -4.5
P    -1.3    4.3   -5.9
C    -3.4   -5.4    4.0
P    -5.0    5.3    2.0
I     6.0    2.6    3.7
H     5.3   -4.1    3.6
N    -4.6   -5.0    3.3
I    -7.5   -1.4   -0.2
I    -0.8   -0.5    7.6
H    -1.6   -6.8   -3.2
P     5.3    5.3    2.0
I     0.3   -1.5   -7.6
I     5.9   -5.1   -0.2
H    -3.0    0.9    7.1
P    -2.3    7.2   -1.9
I    -3.8    5.4   -4.1
H    -5.9    3.8   -3.4
C     0.0   -6.4   -4.5
H    -7.0    2.9   -2.3
I     2.9    6.3    3.8
H     5.7   -5.1    2.2
H    -3.1   -6.4    3.7
H     3.8    0.8   -7.0
N    -3.8    1.5    7.0
H    -3.5   -5.3    5.0
N     5.6   -5.0    3.3
H    -0.7   -6.2   -5.3
H    -6.7    1.7   -4.4
H    -2.6    3.2    7.2
H     4.8   -5.7    3.6
I    -2.9    2.1   -7.5
C    -6.9    3.4   -3.2
H     8.4    1.1   -0.4
I     1.7    3.9   -7.3
H     2.4   -3.6   -7.4
H    -5.4   -5.7    3.6
H     2.1    7.7   -3.2
H    -4.3   -2.8    6.9
H     4.0   -4.7   -6.0
P     4.2   -7.3   -1.9
H     0.3   -7.5   -4.5
H     2.5   -0.8   -8.3
I     3.3    0.3    8.1
H    -4.7    1.1    7.4
C    -3.5    2.8    7.6
H     6.3    1.6    6.0
I    -6.6   -4.6   -3.6
P     0.8   -6.4    6.1
H     0.6    8.1    3.7
N    -7.4    2.5   -4.3
I    -3.3    7.1    4.2
H    -2.4   -2.2    8.3
H     2.8    1.6   -8.3
C     3.7    0.9   -8.1
I     2.4   -4.1    7.6
I    -0.8   -8.2    3.8
I     3.2   -7.4    4.2
I     0.2    4.0    8.1
I     5.0    7.6   -0.3
H     3.5    8.2   -2.4
H     8.8    2.8   -0.4
H    -4.4    3.5    7.4
H     4.0    7.0   -4.5
I    -3.9   -2.3   -8.1
I    -5.3    7.6   -0.3
H     5.6    1.1    7.4
I     8.1   -2.9   -3.5
H    -7.6    4.3   -3.2
H     2.1   -5.4   -7.3
N     9.1    1.8   -0.6
N     3.4   -0.4   -8.7
I     6.4    5.4   -4.1
C     2.8   -4.6   -7.7
H     9.1   -2.3    0.6
N     2.9    8.3   -3.2
H     8.6   -4.0    0.6
N     4.1   -4.8   -7.0
I    -0.7    9.4   -0.2
I     8.1    5.0    0.4
I    -8.8    0.8    3.6
H     5.9   -2.8    6.9
P     1.6   -9.2    2.0
C    -4.4   -2.7    8.0
H    -8.3    2.2   -4.1
H     9.2    1.8   -1.7
H    -6.4    0.8   -7.0
H    -9.3    2.2   -0.3
C     6.9   -5.4    4.0
H    -9.1   -3.0    0.5
H    -7.4    3.0   -5.2
H     4.2   -1.0   -8.5
N    -3.1   -2.9    8.6
N     6.4    1.5    7.0
H    -2.7   -3.8    8.4
P    -6.0   -7.3   -1.9
H     7.6   -4.7    3.6
H    -1.7    8.8    3.6
H     4.8   -4.1   -7.4
H    -3.4    2.7    8.7
I    -3.4   -8.4   -3.5
H    -4.8   -1.7    8.3
H    -0.9    9.4    2.2
H    -9.7    0.5   -0.2
H     4.6    1.3   -8.5
H    -6.2   -4.7   -6.0
P     8.0   -0.6   -5.8
C     9.3   -3.3    0.2
I    -2.1   -6.0    7.6
H     6.7   -5.3    5.0
C     3.7    8.1   -4.5
C     0.3    9.1    4.0
H     9.4   -3.3   -0.9
H    -5.4   -4.1   -7.4
H     5.9    3.5    7.4
P     0.8    1.3    9.9
H     5.4   -1.7    8.3
N    -1.0    9.5    3.3
I    -0.6   -6.0   -8.1
C   -10.1    1.5    0.1
H     2.6    9.3   -3.2
H     7.3    0.9    7.1
C     5.8   -2.7    8.0
H     7.1   -6.4    3.7
H     3.3   -0.3   -9.7
H     3.0    8.3   -5.3
H     4.5   -5.7   -7.3
H    -5.6    1.3   -8.5
H     2.9   -4.7   -8.8
H     8.7    3.6    4.3
I     2.8   -9.1   -4.1
I    -7.4    6.3    3.8
H    -5.1   -3.5    8.4
H    10.2    1.6    1.1
H   -10.2    1.6    1.1
H    -6.2    7.0   -4.5
H     5.1   -3.5    8.4
P    -1.3   -3.4   -9.8
C    -6.5    0.9   -8.1
P    -8.5   -1.5    5.9
H     0.2    9.2    5.0
H    -6.0   -1.0   -8.5
N    -6.1   -4.8   -7.0
C    10.4    1.5    0.1
H    -2.6    2.1  -10.0
C     6.7    2.8    7.6
I     4.4   -9.5    0.4
H     1.1    9.8    3.6
N    -9.8   -3.7    0.8
I     6.4   -2.3   -8.1
I    -1.4    6.6   -8.1
H    -3.2   -2.8    9.7
I     9.6    1.6   -4.1
H    -9.6   -4.7    0.5
I    -6.9    0.3    8.1
H    -9.9   -3.7    1.8
H    10.7    0.5   -0.2
H     2.0   10.5    0.6
I     7.3    2.1   -7.5
H    -1.1  -10.2   -3.2
H     4.3    9.8    0.5
I     6.9    7.1    4.2
H    -9.4    3.0    4.4
H     4.5    8.7   -4.5
H    -6.7    8.2   -2.4
P     7.9    7.2   -1.9
I    -3.0    9.9   -3.6
H    -5.8   -5.7   -7.3
H     7.6    3.2    7.2
H     9.7    4.3    2.9
H     9.1   -5.2   -3.2
H    -8.9    4.6    4.4
I    -7.0   -7.4    4.2
N    -6.8   -0.4   -8.7
P     4.5    8.1    6.1
H    -2.4   -9.9    4.4
H    -1.3   10.5    3.6
H    -4.7   -9.1    4.3
C     9.5    4.3    4.0
I    -5.8   -9.5    0.4
I     4.7    5.8    8.4
H    -7.4    1.6   -8.3
I    -8.9   -6.9   -0.3
N    10.6   -3.7    0.8
H     0.6  -10.7   -3.4
C    -6.6    8.1   -4.5
I     6.8   -8.4   -3.5
H    -5.7    8.7   -4.5
H     6.8    2.7    8.7
H    10.6   -3.7    1.8
H    -7.8   -3.6   -7.4
H    -7.7   -0.8   -8.3
H    11.1    2.2   -0.3
I    -0.1  -11.4    0.4
H    -4.2  -10.2    2.9
H     8.6   -6.8   -3.2
H   -11.2    1.8   -1.7
N    -2.5    2.1  -11.0
H    -5.9    9.8    0.5
N    -9.7    3.9    4.7
H     2.4   -4.3   10.4
N   -11.3    1.8   -0.6
I     1.6    8.5    7.6
P     8.9    4.3   -5.9
H     9.2    5.4    4.3
P     1.4    6.2   -9.6
C    -0.4  -11.1   -3.2
H     5.6   -9.1    4.3
H    -2.2    1.1  -11.3
C     2.8   11.2    0.2
N    -7.3    8.3   -3.2
N     4.1   10.8    0.8
N     7.1   -2.9    8.6
H   -11.1   -3.3   -0.9
I   -10.1   -3.7    4.2
H     2.8   11.2   -0.9
H    -2.1    8.8   -7.3
H   -11.4   -2.3    0.6
I    -5.5    5.8    8.4
C   -11.1   -3.3    0.2
H     7.8   -2.2    8.3
P    -5.8    8.1    6.1
C    -7.5   -4.6   -7.7
I   -10.8    1.6   -4.1
I    -7.8   -4.1    7.6
H    -8.2    7.7   -3.2
H     4.0   10.8    1.8
H    -1.7    2.7  -11.3
I    -2.1    1.7   11.4
H    -2.5    9.8   -6.0
N     9.5   -6.2   -3.2
I    10.3   -3.7    4.2
P     1.7    6.2    9.8
C    -4.4  -10.2    4.0
H    11.4   -3.0    0.5
H    -0.4  -11.6   -2.3
H    10.9   -4.7    0.5
H    -9.4   -5.8   -4.5
H     7.5   -3.8    8.4
I    -8.6    3.9   -7.3
H    -6.9   -0.3   -9.7
H   -10.8    4.3    2.9
N    -3.2  -10.6    4.7
H   -11.7    2.8   -0.4
H    -9.8    4.0    5.7
I     1.6   -3.7  -11.4
I     9.4   -0.5    7.6
I     1.0   -8.7    8.4
I     3.0    8.5   -8.1
H    10.0   -6.3   -2.4
H   -12.1    1.1   -0.4
H    -8.1   -5.4   -7.3
I     3.8   10.8    4.2
H     6.0  -10.2    2.9
I    -1.6   -1.1  -12.0
H    -7.2    8.3   -5.3
I     1.6   11.6   -3.5
I     0.9   -1.0   12.2
N    -2.5    9.7   -7.0
I   -10.0    6.1   -3.5
H    11.0    3.0    4.4
I    11.7    0.8    3.6
H     7.1   -2.8    9.7
H    -7.3   -4.7   -8.8
P    -1.3   12.1   -2.0
I     3.0    0.7  -12.0
N    10.7    3.9    4.7
C     5.8  -10.2    4.0
H    -4.4    4.9   10.5
I     2.4    3.5   11.6
H    -4.6    1.8  -11.4
H   -10.4   -6.3   -2.4
H    -3.3  -10.5    5.7
I    -5.1   -7.9   -8.1
I     5.1   -7.9   -8.1
H    -3.7    3.6   11.3
H     4.8   11.5    0.5
C   -11.0    4.3    4.0
N    -6.2   10.8    0.8
H     3.9   -3.9   11.2
C     3.0   -4.5   11.2
I    -7.5   -9.1   -4.1
H     2.5   12.2    0.6
H    -7.7    9.3   -3.2
H    -4.5    9.1   -7.3
C    -3.8    2.4  -11.7
H   -11.9   -4.0    0.6
H    -2.7  -12.3   -0.3
H    -4.0    3.5  -11.4
H     9.6   -6.2   -5.3
H    -6.2   10.8    1.8
I   -10.0   -1.5   -7.6
I    10.5    6.1   -3.5
H    -0.9  -11.5   -5.2
I     8.2   -6.0    7.6
H    -2.9  -11.5    4.4
H    -5.4   11.5    0.5
I    -0.2    4.4  -11.9
I     2.4  -11.9    3.7
H     7.6    2.1  -10.0
H     5.0  -10.9    4.3
H    10.6    4.0    5.7
P    -5.0  -10.2   -5.9
P    -8.6   -9.2    2.0
N    -0.8  -12.0   -4.3
H     8.5    8.8    3.6
H    -5.2  -10.9    4.3
I     7.3    9.9   -3.6
H    -5.1  -11.7   -0.4
H     5.1  -11.7   -0.4
P     5.2  -10.2   -5.9
H     5.7    1.8  -11.4
C   -10.2   -6.4   -4.5
H   -11.3   -5.2   -3.2
C    10.2   -6.4   -4.5
H    -1.8   10.4   -7.4
I    -3.6   -2.8   12.1
P    -2.2   -8.3   -9.6
P    -9.4   -6.4    6.1
H     5.8    4.9   10.5
N    -4.4    4.4   11.4
H     3.3   -5.6   11.2
H    12.1    2.2   -4.1
P    -2.0   -8.3    9.8
N   -11.0   -6.2   -3.2
I    -2.0  -10.6   -7.3
H     1.9   -3.3   12.5
H   -11.8    3.6    4.3
I    10.5   -1.5   -7.6
H     5.8    9.1   -7.3
I     9.4   -8.2    3.8
I    13.0   -1.4   -0.2
C    -3.8    9.9   -7.7
I    -2.9   -5.6  -11.5
H    -9.7    8.1    3.7
H    -1.8  -12.4   -4.1
H   -11.2    5.4    4.3
