         400
 sphere cut out from bulk 
I    -1.1    1.1   -0.3
H     0.2   -2.0   -0.1
H     0.6   -1.5    2.2
N     0.0   -2.7    0.6
H    -1.0   -2.6    0.8
C     0.8   -2.5    1.8
H    -0.2    1.8   -2.6
P     0.7    3.2    1.3
H     1.9   -2.6    1.5
H     0.2   -3.6    0.2
I     3.3    1.6    0.3
H     1.0    0.0   -3.9
I     2.6   -2.1   -2.3
P    -3.8   -0.4   -1.3
N    -0.2    1.8   -3.7
H     0.6   -3.2    2.6
I    -2.0   -2.6   -2.8
I     0.8    1.4    4.0
H    -1.1    1.3   -4.0
I    -3.6   -2.3    1.3
C     1.0    1.1   -4.2
H     1.9    1.6   -3.9
H    -2.5    1.3    3.7
H    -0.3    2.8   -4.0
H     4.3    1.0    2.6
P     5.1   -0.4   -1.3
I     0.7    5.1   -1.3
H    -4.6    1.0    2.6
H     3.5    1.3    3.9
H    -3.2    4.2   -1.1
H     1.0    1.1   -5.3
I    -1.8    4.8    2.4
C    -3.4    1.7    4.1
I    -3.8    1.3   -4.0
P     0.6   -4.1   -4.0
N     4.4    1.0    3.6
I    -5.6    1.6    0.3
H     4.4   -0.0    3.9
H    -3.6    2.8    3.8
N    -4.6    1.0    3.6
I    -1.1   -2.7    5.1
H     4.1    4.3   -0.6
I     5.4   -2.3    1.3
H    -4.5   -0.0    3.9
H    -3.4   -4.5   -2.1
I     0.7   -5.9   -1.3
H     3.9   -4.5   -1.5
C    -4.0    4.9   -0.8
H    -3.5    1.7    5.2
H    -3.6    5.4    0.1
H    -4.9    4.3   -0.6
I     2.7    5.3    2.7
P     0.7   -0.5    6.5
H    -3.5   -1.9   -5.3
I     5.2    1.3   -4.0
I     3.4   -2.0    5.4
H    -3.7   -5.6    0.1
P    -3.7   -4.2    3.9
I     2.7   -5.7    2.7
I     0.7   -2.2   -6.5
H    -5.5    1.3    3.9
H    -5.0   -4.5   -1.5
N    -4.3   -5.1   -1.8
I    -1.8   -6.3    2.4
H     1.0    4.7    5.2
C     5.0    4.9   -0.8
I    -6.4   -2.1   -2.3
C     5.5    1.7    4.1
H     5.4    2.8    3.8
N     4.7   -5.1   -1.8
H     5.8    4.2   -1.1
I    -1.2    4.8   -5.3
C    -4.0   -6.1   -0.8
H     0.2    7.4    0.2
H     5.5   -4.5   -2.1
C    -3.5   -1.8   -6.3
N    -4.3    5.9   -1.8
H     4.4    5.5   -2.7
H    -2.6   -2.3   -6.7
H     4.4   -5.6   -2.7
H     6.5    1.3    3.7
H     5.3    5.4    0.1
H    -3.2   -6.8   -1.1
H     1.1    3.6    6.6
H    -3.4    6.5   -2.1
H    -3.6   -0.8   -6.7
H    -4.6    5.5   -2.7
H    -7.1   -2.6    1.5
H     3.4   -2.3   -6.5
H    -4.6   -5.6   -2.7
H     5.3   -5.6    0.1
P     5.2   -4.2    3.9
N     4.7    5.9   -1.8
H     5.5    1.7    5.2
H     5.4   -1.9   -5.3
H     4.0    6.6   -1.5
H     4.1   -6.7   -0.6
C     1.1    4.7    6.2
I     7.8    1.1   -0.3
C     5.0   -6.1   -0.8
I    -1.9    1.0    7.7
I     7.0   -2.6   -2.8
P     0.7   -7.8    1.3
H    -0.2   -4.7    6.5
P     0.6    6.9   -4.0
I    -5.6   -2.0    5.4
I     3.3    5.4   -5.1
H    -1.0    4.9    6.5
H    -7.1    1.6   -3.9
I     3.3   -5.6   -5.1
H     0.6    7.8    2.6
H     1.0   -6.4    5.2
P    -3.8    3.2   -6.6
H    -4.9   -6.7   -0.6
I    -1.2   -6.3   -5.3
I    -1.9    1.2   -8.0
I     2.6    1.8   -7.7
N     0.0    8.3    0.6
H    -5.0    6.6   -1.5
H     8.0   -2.6    0.8
N     4.3   -2.6   -6.9
H    -1.0    8.4    0.8
C     5.4   -1.8   -6.3
H     5.3   -0.8   -6.7
H     2.0    5.2    6.6
N    -0.1    5.3    6.8
H     4.3   -3.6   -6.6
I    -6.3    5.3    2.7
C    -8.1   -2.5    1.8
P    -3.7    6.8    3.9
N    -4.7   -2.6   -6.9
H    -8.3   -1.5    2.2
I     2.6    1.5    8.2
H     5.5    6.5   -2.1
C     0.9    8.6    1.8
H    -4.6   -3.6   -6.6
H     1.9    8.5    1.5
H    -7.9    0.0   -3.9
N    -0.1   -5.7    6.8
H    -5.6   -2.3   -6.5
I    -6.3   -5.7    2.7
H     7.9    1.3   -4.0
P    -8.3    3.2    1.3
I     7.2    4.8    2.4
I    -3.7    4.9    6.5
P     5.2    3.2   -6.6
H    -8.7   -2.0   -0.1
H    -1.0   -6.1    6.5
H     5.8   -6.8   -1.1
H     0.5    4.2   -7.9
C     1.1   -6.4    6.2
H     0.3    9.0   -0.1
H     2.0   -5.9    6.6
H    -0.2    6.3    6.5
C    -8.0    1.1   -4.2
I    -1.9    8.4   -2.8
H    -3.4   -1.0    8.4
H     4.4   -2.0    7.8
I    -8.1    1.4    4.0
H    -4.5   -2.0    7.8
P     0.6   -0.4   -9.2
H    -0.3   -8.3   -4.0
H     8.7    1.8   -2.6
H    -8.4   -3.2    2.6
I    -5.7    5.4   -5.1
H     4.3   -2.6   -7.9
N    -9.0   -2.7    0.6
N     9.0   -2.7    0.6
H     9.2   -2.0   -0.1
P     5.2    6.8    3.9
I    -5.7   -5.6   -5.1
H    -0.1    5.3    7.8
I     0.8   -2.3    9.2
H    -8.8   -3.6    0.2
H     6.4   -2.3   -6.7
I    -3.6    8.8    1.3
H    -4.7   -2.6   -7.9
I     2.6    8.9   -2.3
H    -0.2   -9.3   -2.6
H    -8.0    1.1   -5.3
N     8.8    1.8   -3.7
I     5.2    4.9    6.5
I    -3.7   -6.1    6.5
H    -0.1   -5.7    7.8
H    -9.2    1.8   -2.6
H     0.6   -5.0   -8.3
I     7.8   -2.7    5.1
N    -4.2   -1.5    8.7
H    -3.6   -8.3    3.8
I    -8.3    5.1   -1.3
I     7.2   -6.3    2.4
H     9.1   -3.6    0.2
H     0.6    9.6    2.2
I    -1.1    8.3    5.1
H     4.0   -0.9    9.0
H     9.6   -1.5    2.2
H     8.7    2.8   -4.0
N    -0.2   -9.3   -3.7
I     3.3   -9.4    0.3
H     1.1   -7.4    6.6
N     4.8   -1.5    8.7
I    -1.1   -9.9   -0.3
C     0.8    5.0   -8.7
N    -9.2    1.8   -3.7
P    -8.4   -4.1   -4.0
I   -10.1    1.1   -0.3
H     5.6   -1.0    8.4
I    -6.4    1.8   -7.7
H     0.6    6.0   -8.3
I    -8.3   -5.9   -1.3
H    -4.9   -0.9    9.0
C     9.8   -2.5    1.8
P     9.7    3.2    1.3
H   -10.0   -2.6    0.8
H     1.8    4.9   -8.9
I     5.2   -6.1    6.5
I     5.4    8.8    1.3
H    -3.1   -3.2    9.3
H     1.9   -9.4   -3.9
H     9.5   -3.2    2.6
P    -3.8    3.2    9.2
H    -9.2    2.8   -4.0
H     0.5   -6.8   -7.9
I    -6.3    1.5    8.2
H     0.3    1.6   10.3
I     0.8   -9.6    4.0
I     7.1    1.0    7.7
H    -7.9    4.7    5.2
I     7.8    4.8   -5.3
P    -8.3   -0.5    6.5
H    -1.1   -9.7   -4.0
H     5.4   -8.3    3.8
C     0.8   -6.0   -8.7
I     9.8    1.4    4.0
I    -8.2   -2.2   -6.5
H     0.2   -0.1   10.7
H    10.0    0.0   -3.9
H    -2.5   -9.7    3.7
C    -3.4   -9.3    4.1
C    -3.9   -2.6    9.7
I     7.1    1.2   -8.0
H     4.3    7.4   -6.6
H    -1.1    4.9   -9.7
C     1.0  -10.0   -4.2
I     3.2   -2.0  -10.2
H   -10.0    1.3   -4.0
P    -3.8   -7.8   -6.6
C    10.0    1.1   -4.2
H    -7.9    3.6    6.6
H    -7.0    5.2    6.6
H    -4.6    7.4   -6.6
H     0.1    3.8  -10.3
N    -0.1    4.8   -9.9
I    -5.6   -9.4    0.3
I     0.8    8.9   -6.5
H     1.8   -6.1   -8.9
I     9.7    5.1   -1.3
P     5.2    3.2    9.2
H     3.5   -9.7    3.9
I     3.4    9.0    5.4
C    -7.9    4.7    6.2
N     0.1    0.9   11.1
H    -3.5    9.2   -5.3
I    -3.7    5.2   -9.2
H    -7.1    8.5    1.5
P     9.6   -4.1   -4.0
I    -1.2   -2.5  -10.8
H    -3.7    1.8  -10.3
I    -3.8   -9.7   -4.0
H     4.1   -3.1    9.9
I    -6.4    8.9   -2.3
I    -1.0    4.7   10.2
H     4.3  -10.1    2.6
C     5.1   -2.6    9.7
H    -7.0   -5.9    6.6
H    -3.5   -9.3    5.2
H    10.9   -2.6    1.5
I     7.7   -6.3   -5.3
H     9.9    1.1   -5.3
H     0.9   -9.9   -5.3
I     7.0    8.4   -2.8
H    -2.6    8.8   -6.7
H    -4.6  -10.1    2.6
P    -3.8   10.6   -1.3
H     8.0    4.9    6.5
H    -0.9    1.0   11.3
H    -3.6   -2.0   10.6
I     9.6   -5.9   -1.3
H    -7.9   -6.4    5.2
P     5.1   -7.8   -6.6
H    -4.8   -3.1    9.9
P    -8.3   -7.8    1.3
H     3.4    8.8   -6.5
I    -3.7   -5.9   -9.2
H    -8.8    7.4    0.2
H     5.8   -3.2    9.3
H    -1.1   -6.2   -9.7
P    -8.3    6.9   -4.0
I   -10.9   -2.6   -2.8
C     5.5   -9.3    4.1
N     4.4  -10.1    3.6
H     8.0    8.4    0.8
H    10.9    1.6   -3.9
I   -10.1   -2.7    5.1
N    -4.6  -10.1    3.6
P     9.7   -0.5    6.5
N     4.3    8.4   -6.9
I     5.1   -9.7   -4.0
H     1.0  -11.0   -3.9
N    -0.1   -6.3   -9.9
C    -3.5    9.2   -6.3
H     5.2    1.8  -10.3
H    -8.4    7.8    2.6
H     9.1    7.4    0.2
H     4.0    0.8  -11.0
I     5.3    5.2   -9.2
H     1.0   11.1   -3.9
N    -4.7    8.4   -6.9
H    -5.5   -9.7    3.9
I    -5.7   -2.0  -10.2
H     8.8   -4.7    6.5
I     9.7   -2.2   -6.5
H     5.4    9.2   -5.3
I     0.6    1.6  -11.8
P     5.1   10.6   -1.3
I    -5.6    9.0    5.4
C    -7.9   -6.4    6.2
C    -8.1    8.6    1.8
H     0.2    5.4  -10.6
I    11.5   -2.1   -2.3
H     8.0   -6.1    6.5
H     0.2   -5.6  -10.6
I   -10.8    4.8    2.4
C    -4.1    1.3  -11.2
H     5.5   -9.3    5.2
I    -1.1   -6.4   10.2
H     5.4   -2.0   10.6
H    -3.3    0.6  -11.6
I     5.3   -5.9   -9.2
H    -5.0    0.8  -11.0
H   -11.5    1.3    3.7
P    -3.8  -11.4   -1.3
H    -9.2   -4.7    6.5
H    10.0    4.7    5.2
I    -1.1   12.1   -0.3
H     2.0    1.0   12.0
H     6.4   -9.7    3.7
N    -8.9    8.3    0.6
N     9.0    8.3    0.6
H    -5.6    8.8   -6.5
H     4.3    8.4   -7.9
H    -8.5    4.2   -7.9
C     4.9    1.3  -11.2
I     2.6   -9.3   -7.7
N     8.9    5.3    6.8
C     0.9    1.1   12.3
I    -3.5    1.3   11.8
P     0.7   10.5    6.5
P    -8.3   -0.4   -9.2
I    12.3    1.6    0.3
H    -7.1   -9.4   -3.9
I     3.4    5.2   10.8
I   -10.2    4.8   -5.3
C     5.5    9.2   -6.3
H    -7.1    4.9   -8.9
P     9.6    6.9   -4.0
H     4.4   11.0    3.9
H    -4.7    8.4   -7.9
P     9.7   -7.8    1.3
N     8.8   -5.7    6.8
H    -4.5   11.0    3.9
N    -9.1    5.3    6.8
I    -8.2   -2.3    9.2
I     7.8    8.3    5.1
H    -8.7    9.0   -0.1
H     4.4  -11.1    3.9
P     0.8   -4.3   11.8
H     0.1   -7.2  -10.3
H    -3.1    7.8    9.3
H    10.1    3.6    6.6
P     5.1  -11.4   -1.3
H    -4.6  -11.1    3.9
H     9.6    7.8    2.6
H     8.8    6.3    6.5
P    -3.8   -7.9    9.2
I     7.8   -9.9   -0.3
H     8.7   -8.3   -4.0
H    -7.9   -7.4    6.6
I     0.8    8.7    9.2
N    -9.1   -5.7    6.8
I   -10.8   -6.3    2.4
H     0.6  -12.5    2.2
I     3.4   -5.8   10.8
C    10.1    4.7    6.2
H     4.5    9.1    7.8
H    -3.6   10.2   -6.7
H    -4.5    9.1    7.8
H     6.4    8.8   -6.7
I    -1.9  -10.1    7.7
I   -12.6   -2.3    1.3
