         400
 sphere cut out from bulk 
I     1.6    0.1    0.9
P    -1.1   -1.3    1.9
H    -1.0   -0.7   -2.7
I    -2.9    0.8    0.4
H     2.6   -2.0    0.1
H    -1.5    1.7   -2.4
I    -1.0   -3.3   -0.6
H     0.2    0.3   -3.5
C    -0.8   -0.0   -3.5
N    -1.7    1.2   -3.3
P     3.3    2.3   -0.7
I     0.7    3.7   -1.7
N     3.1   -3.0   -0.1
H    -0.1    4.3    0.8
H     2.3   -3.7   -0.3
H    -2.7    0.9   -3.3
H    -1.4    3.3    2.7
H     3.4    0.3    3.1
H    -1.1   -0.5   -4.4
H    -2.5    3.7    1.3
H     3.3   -2.6   -2.2
H    -1.6    1.9   -4.1
H    -4.2   -2.1   -1.1
H     3.6   -3.2    0.7
I    -1.5    0.4    4.6
I     3.6    0.5   -3.3
C    -1.8    4.1    2.1
I     0.7   -3.5    3.5
C     3.9   -2.9   -1.3
N    -0.7    4.9    1.4
H     4.7   -2.1   -1.1
H     1.9    0.8    4.9
H     3.6    1.9    3.6
N     3.7    0.9    3.9
I     3.2    4.1    2.0
H    -1.0   -5.4    0.8
I    -3.8   -3.0    2.8
H    -0.1    5.3    2.1
H    -1.1    5.6    0.8
H    -4.2    0.7    4.0
I     1.5   -3.6   -4.4
C    -5.0   -2.9   -1.3
C     3.0    0.6    5.1
H    -2.4    4.8    2.7
I     6.0    0.8    0.4
H     4.4   -3.9   -1.5
P    -5.6    2.3   -0.7
H    -0.0   -5.7    2.1
H    -4.5   -3.9   -1.5
P    -1.1   -5.1   -3.3
I    -3.7    4.5   -2.1
H    -5.3   -3.2    0.7
H     4.8    0.7    4.0
H     3.2   -0.4    5.4
I    -5.3    0.5   -3.3
H    -5.5    0.3    3.1
I    -2.9   -3.0   -4.8
N    -0.7   -6.2    1.4
N    -5.2    0.9    3.9
H    -5.6   -2.6   -2.2
I     5.1   -3.0    2.8
N    -5.8   -3.0   -0.1
H    -6.3   -2.0    0.1
H    -5.3    1.9    3.6
H    -1.7   -1.6    6.4
H     3.3    3.1   -5.1
H    -0.1   -6.8    0.8
H     3.3    1.3    5.9
P    -1.1    6.0   -3.3
P     3.4   -1.5   -5.9
I     0.8    0.0   -7.0
H     6.2    0.9   -3.3
I    -1.3    3.9   -5.8
I     5.2    4.5   -2.1
H    -2.3   -6.2    2.7
I    -5.7    4.1    2.0
H     2.0    4.3   -5.5
H    -1.2   -4.0    6.0
I     1.3    3.9    6.1
I    -7.3    0.1    0.9
C     3.1    4.1   -5.4
C    -1.8   -6.9    2.1
H     3.5    4.8   -4.6
P     3.3   -5.0    4.6
H     6.4    3.7    1.3
I     0.7   -7.3   -1.7
H    -6.6   -3.7   -0.3
H     0.1   -3.2    7.0
P    -1.3    2.4    7.1
H     2.3    7.4   -0.3
N    -1.8   -2.3    7.1
I    -3.6   -6.6   -2.1
H    -2.4   -7.3    1.3
C    -5.9    0.6    5.1
I    -1.0    7.8   -0.6
C    -1.0   -3.5    7.0
H    -5.8   -0.4    5.4
I    -3.1    4.5    5.7
I     3.2   -7.0    2.0
H     7.4    1.7   -2.4
N     7.2    1.2   -3.3
P     7.8   -1.3    1.9
H    -2.8   -2.6    7.2
H    -5.6    3.1   -5.1
P    -5.5   -1.5   -5.9
I     6.0   -3.0   -4.8
H    -5.6    1.3    5.9
P     3.2    6.0    4.6
H    -1.3   -7.7    2.7
I     0.6    7.5    3.5
H     7.9   -0.7   -2.7
H    -1.6   -1.8    8.0
C     7.1    4.1    2.1
I     3.4   -3.0    7.1
H     3.5   -6.2   -4.6
I    -3.7    0.6   -7.6
H    -2.2   -2.7   -7.7
H     4.3    7.2   -1.5
H     6.5    4.8    2.7
H    -5.4    4.8   -4.6
H    -7.0    0.8    4.9
N     3.0    8.1   -0.1
H     0.1   -2.2   -8.3
H    -4.6    7.2   -1.5
I     7.9   -3.3   -0.6
H     7.3    1.9   -4.1
H     3.6    7.8    0.7
H     7.5    3.3    2.7
I     5.3   -6.6   -2.1
H    -4.0    4.3   -6.5
I     0.5    0.2    8.7
I     1.5    7.4   -4.4
I     7.4    0.4    4.6
C     8.1   -0.0   -3.5
P    -5.6   -5.0    4.6
N     3.9    4.4   -6.6
P    -1.0    2.2   -8.5
C    -5.8    4.1   -5.4
H    -1.2   -4.2   -7.8
H    -1.2   -4.2    7.8
H     2.1   -6.7   -5.5
H     7.8   -0.5   -4.4
H     3.5    3.8   -7.4
C     3.9    8.1   -1.3
H     4.9    4.3   -6.5
I    -3.1   -6.5    5.7
C    -1.6   -3.4   -8.4
I    -8.2    3.7   -1.7
I    -5.7   -7.0    2.0
I     5.8    4.5    5.7
I     5.2    0.6   -7.6
I    -1.3   -7.1   -5.8
I    -3.8    0.9    8.4
I    -7.4   -3.6   -4.4
C     3.2   -6.9   -5.4
H     3.3    8.4   -2.2
H     2.5    9.0    0.1
H    -1.3    7.0    6.0
P     3.4   -8.7   -0.7
H    -8.7    0.3   -3.5
I    -3.9    8.1    2.8
N    -5.0    4.4   -6.6
H    -5.4   -6.2   -4.6
N    -0.5   -2.6   -9.0
H     6.6   -6.2    2.7
I     1.4   -7.1    6.1
P    -5.7    6.0    4.6
I    -5.5   -3.0    7.1
H    -5.3    7.8    0.7
H     3.7    5.4   -6.9
H     7.9   -5.4    0.8
I    -8.2   -3.5    3.5
N     8.2    4.9    1.4
C    -5.0    8.1   -1.3
H     3.8   -5.6   -6.9
H     7.8    5.6    0.8
I     3.4   -3.4   -8.4
H     6.1   -2.6    7.2
H    -1.4   -9.3   -2.4
H     7.2   -1.6    6.4
H     9.1    0.3   -3.5
H     8.8    4.3    0.8
H    -6.9    4.3   -5.5
I    -3.0    8.0   -4.8
H    -0.9   -1.9   -9.6
I     5.1    0.9    8.4
H     6.5   -7.3    1.3
H    -5.4    3.8   -7.4
P     7.8   -5.1   -3.3
I     5.0    8.1    2.8
H    -4.3    8.9   -1.1
H    -6.7    7.4   -0.3
P    -1.2    9.7    1.9
N    -5.9    8.1   -0.1
H     3.3   -7.9   -5.1
H    -9.1    4.3    0.8
H     4.7    8.9   -1.1
H     3.1    4.9    8.3
N     3.9   -6.6   -6.6
H    -1.5   -9.1   -4.1
H    -4.0   -6.8   -6.5
C     7.1   -6.9    2.1
H    -2.3   -3.8   -9.2
H    -5.2    5.4   -6.9
H     0.0   -3.2   -9.7
H    -5.1   -5.6   -6.9
C    -1.0    7.5    7.0
H    -9.9   -0.7   -2.7
N     7.1   -2.3    7.1
I     7.6    3.9   -5.8
P   -10.0   -1.3    1.9
I     1.7    3.6   -9.5
P    -5.5   -8.7   -0.7
C    -9.7   -0.0   -3.5
P     3.2   -1.2    9.8
P     7.8    6.0   -3.3
H    -5.6    8.4   -2.2
N     8.3   -6.2    1.4
I    -9.9   -3.3   -0.6
H    -1.2    6.8   -7.8
I     9.6    3.7   -1.7
I     5.8   -6.5    5.7
H     3.8    0.3   -9.7
H    -1.2    6.8    7.8
C    -5.7   -6.9   -5.4
H     3.6   -9.1    3.6
H     0.0    7.8    7.0
I    -7.6    3.9    6.1
N    -1.6   -9.8   -3.3
H     8.8    5.3    2.1
I    10.5    0.1    0.9
H     7.7   -4.0    6.0
H     4.2    3.6    9.0
N    -5.0   -6.6   -6.6
H     4.9   -6.8   -6.5
H     6.7   -2.7   -7.7
I    -2.9  -10.2    0.4
I    -5.5   -3.4   -8.4
H    -9.0    5.3    2.1
I    -8.1    0.0   -7.0
H    -1.1   10.3   -2.7
P     7.7    2.4    7.1
I    -1.2    4.2    9.8
H    -4.7    3.6    9.0
H     8.9   -5.7    2.1
I     9.6   -3.5    3.5
H     3.2   -6.1    8.3
H   -10.4    1.7   -2.4
H    -8.9   -5.7    2.1
H     2.7    1.5  -10.4
N    -9.6    4.9    1.4
C     3.8    4.6    9.1
H     3.6   -7.2   -7.4
H    -2.7  -10.1   -3.3
H    -5.6   -7.9   -5.1
H   -10.0   -0.5   -4.4
H     2.4   -0.1  -10.7
H     7.3   -1.8    8.0
H    -6.4    9.0    0.1
H    -5.2    0.3   -9.7
I     5.9    8.0   -4.8
N     3.2    0.6  -10.6
H    -6.8   -6.7   -5.5
I     7.9    7.8   -0.6
I     1.6  -10.9    0.9
H     2.1    3.8   10.2
I    -8.2   -7.3   -1.7
H   -10.3    3.3    2.7
I    -0.8    0.3  -11.1
C     7.9   -3.5    7.0
H    -5.3   -9.1    3.6
H     8.8   -6.8    0.8
H     7.6   -7.7    2.7
N   -10.6    1.2   -3.3
H    -5.8    4.9    8.3
I     3.4    8.0    7.1
P    -1.2   -8.6    7.1
I     1.5   11.1    0.9
H     0.3  -10.7   -3.5
H    -0.3    0.7   11.2
H    -9.0   -6.8    0.8
I    -2.8    4.3  -10.0
H    -9.9   -5.4    0.8
I    -7.4    7.4   -4.4
I   -10.4    0.4    4.6
P    -5.7   -1.2    9.8
H   -10.5    1.9   -4.1
N    -1.9    8.7    7.1
H    -2.9    8.4    7.2
C    -1.7    7.6   -8.4
H    -1.8    9.4    6.4
C    -5.2    4.6    9.1
N    -9.6   -6.2    1.4
N     3.8  -10.1    3.9
H    -1.2   10.5   -4.4
H   -10.0    5.6    0.8
H     2.0  -10.3    4.9
H    -1.2    2.1   11.3
H    -2.2    8.3   -7.7
C    -0.8  -11.0   -3.5
C    -0.9   11.0   -3.5
H    -5.3   -7.2   -7.4
C     7.3   -3.4   -8.4
I     3.6  -10.5   -3.3
I    -3.1   -2.7   10.9
H    -4.4    5.4    9.3
N     2.9    4.5   10.3
P   -10.0   -5.1   -3.3
C   -10.7    4.1    2.1
H     4.5    5.4    9.3
H     3.5  -10.7    3.1
I    -1.4  -10.6    4.6
H    -8.8   -3.2    7.0
H    11.5   -2.0    0.1
I    -8.3    7.5    3.5
P     3.3    9.6   -5.9
H    -4.3   -5.7    9.3
H     7.7   -4.2   -7.8
H    -5.7   -6.1    8.3
H    -4.1  -10.3    4.0
H     7.8   -4.2    7.8
C     3.8   -6.4    9.1
H     9.0   -3.2    7.0
H    11.2   -3.7   -0.3
I     3.3    7.6   -8.4
P     7.9    2.2   -8.5
H     4.6   -5.7    9.3
I    10.4   -3.6   -4.4
I     6.0  -10.2    0.4
H     0.1   11.3   -3.5
H    -2.3    7.2   -9.2
H     3.4   -9.8    5.9
I   -11.9    0.8    0.4
H    10.8    0.8    4.9
I     7.6   -7.1   -5.8
H     6.6   -3.8   -9.2
I     9.7    0.0   -7.0
H     7.6    7.0    6.0
N    -5.1  -10.1    3.9
I    -1.1   -6.8    9.8
I     1.5   -3.4   11.4
N    -0.9    1.3   11.9
C     3.0  -10.4    5.1
I    -7.5   -7.1    6.1
H   -11.4    3.7    1.3
N    -5.7    0.6  -10.6
H    -1.0  -11.7   -2.7
H     4.8  -10.3    4.0
H    -2.6    0.2   11.8
I    -5.5    8.0    7.1
I    -8.4    0.2    8.7
H     2.4    5.5   10.5
H   -11.6    0.9   -3.3
P   -10.0    6.0   -3.3
H     0.0    8.8   -8.3
H     2.5   -5.6   10.5
H    -6.2    1.5  -10.4
H     3.3   11.3    3.1
I    -3.0   11.8    0.4
I     1.8   -7.4   -9.5
H     7.5   -9.3   -2.4
I     9.6   -7.3   -1.7
I    -5.3  -10.5   -3.3
H     3.1   10.6    5.4
C    -5.1   -6.4    9.1
P    -0.9   -8.8   -8.5
H    -1.7    9.2    8.0
H    -8.8   -2.2   -8.3
H     6.3  -10.1   -3.3
N    12.0   -3.0   -0.1
N    -0.6    8.4   -9.0
H    -4.1    1.4  -11.6
H    -1.0  -11.5   -4.4
I    -2.8   -6.7  -10.0
H     4.3   -7.4    9.0
H    -0.0    7.8   -9.7
I    -1.5   11.4    4.6
H    -5.5  -10.7    3.1
I   -10.2    3.9   -5.8
H   -10.1   -4.0    6.0
H     9.0   -2.2   -8.3
P    12.2    2.3   -0.7
I    -7.2    3.6   -9.5
H     7.4   -9.1   -4.1
H     3.4    4.3   11.2
H   -10.6   -1.6    6.4
C     4.1    0.6  -11.8
I     3.5   11.5   -3.3
H    -6.5   -0.1  -10.7
H    -4.6   -7.4    9.0
I     6.1    4.3  -10.0
P    -5.6    9.6   -5.9
P     7.7    9.7    1.9
P    -1.1  -12.3    1.9
N     2.9   -6.5   10.3
I    10.2    3.9    6.1
H   -11.3    4.8    2.7
H     6.0    8.4    7.2
C    -9.9   -3.5    7.0
N     8.4   -2.6   -9.0
