         400
 sphere cut out from bulk 
I     0.6    0.8    0.0
H    -1.0   -1.0   -1.3
N    -1.3   -1.9   -1.7
H    -1.0    0.7    2.6
H    -1.1   -2.8    0.2
H     0.3   -2.9   -0.8
C    -0.8   -3.0   -0.8
H    -2.3   -1.9   -1.7
H    -1.0   -2.0   -2.6
P     3.3   -0.5    1.3
P    -1.1    3.2   -1.3
H     1.8    1.1   -3.3
C    -1.4    1.4    3.4
I     1.5   -2.8    2.7
I    -3.8    1.7   -0.3
H    -1.2    2.4    3.2
H     3.1   -0.0   -2.9
H    -1.1   -3.9   -1.1
H     3.2    1.5   -2.4
I    -0.9    1.4   -4.0
I    -3.0   -1.9    2.5
N     2.9    1.0   -3.2
I     3.6   -2.3   -1.4
H    -2.4    1.2    3.6
H     0.4    1.2    4.5
N    -0.6    1.1    4.7
H    -0.8    0.1    5.0
I     3.0    1.4    3.9
I    -1.1    4.9    1.4
I     5.0    1.7   -0.3
H     2.5    4.3    2.0
I     1.5    4.7   -2.3
I     0.6   -2.6   -4.8
P    -5.5   -0.5    1.3
H    -0.9    1.7    5.5
P    -1.1   -4.1    3.9
C     3.6    1.4   -4.4
I    -5.2   -2.3   -1.4
H     2.5   -5.0    2.2
H    -4.2    1.3   -4.3
H     3.3    2.4   -4.6
H     3.2    0.8   -5.2
H     3.2    5.3   -0.0
H    -4.3    4.4    0.7
H    -5.6    1.5   -2.4
N     3.0    5.1    2.0
H     4.5    4.4    0.7
I    -1.1   -6.1    1.4
H     4.7    1.3   -4.3
H    -5.8   -0.0   -2.9
H     3.2   -5.7   -0.0
H    -4.4   -4.8    0.9
C     3.8    5.3    0.8
H     4.5   -4.8    0.9
P     3.3   -4.2   -3.9
H    -0.8    3.7   -5.5
P    -1.1   -0.6   -6.5
I     5.8   -1.9    2.5
I    -2.9    5.3   -2.9
H     3.2   -2.8    5.2
H     2.4    6.0    2.2
N    -6.0    1.0   -3.2
H     3.3   -1.1    5.9
I     1.5   -6.3   -2.3
I    -0.9   -2.2    6.5
H     3.7    5.1    2.9
N     3.1   -5.9    2.0
H     6.5   -1.9   -1.7
C     3.9   -5.7    0.8
I    -3.8   -2.0   -5.5
C    -5.2    1.4   -4.4
I    -2.8   -5.7   -2.9
I    -5.9    1.4    3.9
H    -1.1    7.1   -1.1
C    -5.0    5.3    0.8
H    -0.9    5.2   -5.0
C     3.6   -2.2    6.1
H     2.5   -6.7    2.0
H     6.4    1.2    3.6
N    -0.6    4.6   -5.8
I     0.6    4.8    5.7
H     3.7   -5.9    2.9
H    -5.5    2.4   -4.6
H    -4.4    6.2    0.9
C    -5.0   -5.7    0.8
H     0.4    4.8   -5.9
H     4.4    6.2    0.9
H    -0.9   -5.8   -5.0
H    -5.6    0.8   -5.2
I     5.1   -2.0   -5.5
H    -5.7    5.3   -0.0
H    -5.1    5.1    2.9
H    -7.0    1.1   -3.3
H    -4.2   -2.3    6.2
H     1.8   -2.5    7.2
H    -4.3   -6.6    0.7
N     7.5   -1.9   -1.7
H    -6.4    4.3    2.0
P    -5.5   -4.2   -3.9
I     1.5    0.8   -7.8
N    -5.8    5.1    2.0
P    -1.2    6.8    3.9
H    -5.6   -5.7   -0.0
P    -1.1   -7.8   -1.3
H     7.8   -1.0   -1.3
H     4.5   -6.6    0.7
P     3.3    3.2    6.6
C    -0.8    8.0   -0.8
H     4.6   -2.3    6.2
H    -5.5   -1.1    5.9
H     0.3    8.1   -0.8
H    -5.6   -2.8    5.2
H     7.7   -2.8    0.2
I    -3.8    5.4    5.0
I    -8.2    0.8    0.0
I    -2.9    1.7    7.5
H     7.8    0.7    2.6
N     2.9   -2.6    7.3
H    -1.1    8.2    0.2
I    -7.3   -2.8    2.7
C     7.4    1.4    3.4
C    -5.2   -2.2    6.1
H    -5.1   -5.9    2.9
H    -6.4   -5.0    2.2
I    -3.8   -5.6    5.0
I     1.5    1.1    8.2
P     7.7    3.2   -1.3
I     0.6   -6.2    5.7
N    -5.8   -5.9    2.0
P     3.3    6.8   -3.9
I     6.0    5.3   -2.9
H     7.9   -2.0   -2.6
H     0.4   -6.2   -5.9
H     7.6    2.4    3.2
N    -0.6   -6.4   -5.8
C     8.1   -3.0   -0.8
I    -3.0    1.6   -8.0
H    -2.4    4.8   -6.8
C    -1.4    5.0   -7.0
H     7.7   -3.9   -1.1
H     3.7   -2.3   -7.6
I     6.0   -5.7   -2.9
H     2.5   -1.5   -8.3
I     3.0    5.0   -6.6
I     1.5    8.2    2.7
I     5.0    5.4    5.0
H     3.0   -3.6    7.5
H    -1.2   -5.0   -7.3
I     7.9    1.4   -4.0
H     3.2   -2.0    8.1
I    -7.3    4.7   -2.3
H    -6.4    6.0    2.2
H    -1.0    4.3   -7.8
H    -8.5   -2.9   -0.8
I     5.0   -5.6    5.0
P    -5.5    3.2    6.6
H    -0.7   -7.3   -5.5
H    -1.2   -8.6    3.2
I     7.7    4.9    1.4
N     3.1   -2.3   -8.4
P    -1.1   -0.4    9.2
N    -1.3    9.1   -1.7
H     2.5   -3.1   -8.4
C    -1.4   -6.0   -7.0
I     3.0   -6.0   -6.6
H    -1.0    9.0   -2.6
H    -5.1   -2.3   -7.6
H     8.1    0.1    5.0
H    -6.4   -6.7    2.0
I     9.4    0.8    0.0
I    -1.1   -2.5   -9.1
N     8.2    1.1    4.7
H    -2.4    9.1   -1.7
H    -1.2    6.0   -7.3
I     3.6    8.7   -1.4
H    -2.4   -6.2   -6.8
P    -5.5    6.8   -3.9
H    -1.0    5.4    7.9
P     7.7   -4.1    3.9
H     9.2   -2.9   -0.8
H    -8.4    1.2    4.5
I     0.6    8.4   -4.8
H    -1.0   -5.6    7.9
H     7.9    1.7    5.5
I     6.0    1.7    7.5
N    -6.0   -2.6    7.3
I    -8.2   -2.6   -4.8
I    -3.0    9.0    2.5
I    -7.3   -6.3   -2.3
H    -9.8   -1.0   -1.3
I     7.7   -6.1    1.4
I     5.9    1.6   -8.0
H    -1.1    3.5    9.3
I    -3.8   -9.3   -0.3
C    -9.6   -3.0   -0.8
H    -5.6   -2.0    8.1
P     7.7   -0.6   -6.5
I    -5.9    5.0   -6.6
H    -1.0   10.0   -1.3
H    -5.8   -3.6    7.5
P     3.3    3.1   -9.2
I     0.6  -10.2    0.0
H    -9.9    0.7    2.6
H     3.2    8.2    5.2
I    -5.2    8.7   -1.4
H     3.2   -9.5   -2.4
H     3.4   -8.5   -4.6
H    -1.0   -4.5    9.2
C    -1.4   -9.6    3.4
H    -9.8   -2.0   -2.6
H    -9.9   -2.8    0.2
H    -1.1    0.8  -10.2
H    -7.0   -2.5    7.2
H     9.2    1.2    4.5
H    -1.0   -6.7   -7.8
I    -0.9   -9.6   -4.0
H     8.1    3.7   -5.5
I     7.9   -2.2    6.5
N   -10.1   -1.9   -1.7
N    -1.3   -5.5    8.8
N    -5.8   -2.3   -8.4
N    -1.3    5.5    8.8
P    -9.9    3.2   -1.3
H     6.4    4.8   -6.8
H     7.7    7.1   -1.1
H    -6.4   -1.5   -8.3
H     1.9   -9.9   -3.3
I     5.0   -9.3   -0.3
N    -9.4    1.1    4.7
H    -4.4   -1.2   -9.6
I    -9.8    1.4   -4.0
C     3.9   -2.2   -9.7
I    -5.8   -6.0   -6.6
H    -1.0  -10.3    2.6
H    -2.4   -5.5    8.8
H     4.5   -1.2   -9.6
H    -2.4    5.5    8.8
H     0.3    4.5    9.7
H    -2.4   -9.8    3.6
H     7.9    5.2   -5.0
C    -0.8    4.5    9.7
I    -7.3    0.8   -7.8
H    -9.9   -3.9   -1.1
P     3.3   -7.8    6.6
I     3.0   -9.6    3.9
H     0.4   -9.8    4.5
H   -10.0    2.4    3.2
H    -9.6    0.1    5.0
C   -10.2    1.4    3.4
H    -0.9   -9.3    5.5
I     0.6   -2.8   10.5
N     2.9  -10.0   -3.2
I     9.5   -2.6   -4.8
H     7.9   -5.8   -5.0
H     3.0    7.4    7.5
N    -0.6   -9.9    4.7
I    -1.0    8.8    6.5
I    10.3   -2.8    2.7
P     7.7    6.8    3.9
H    -6.3   -3.1   -8.4
I    -7.3    1.1    8.2
H     3.2    1.8   10.4
I    -3.8   -1.9   10.2
I     5.8    9.0    2.5
P     7.7   -7.8   -1.3
N     8.2    4.6   -5.8
I     3.6    5.1    9.1
P     3.3   10.5    1.3
C    -5.0   -2.2   -9.7
I    -8.2    4.8    5.7
H    -4.3   -3.0   -9.8
H    -5.5   -8.5   -4.6
P    -5.5    3.1   -9.2
C     3.6   -9.6   -4.4
I    -9.9    4.9    1.4
I    -3.8    8.9   -5.5
H     4.5   -3.0   -9.8
H     3.2   -2.1  -10.5
H    10.7    1.1   -3.3
H     6.4   -6.2   -6.8
H    -5.6    8.2    5.2
H     7.7    8.2    0.2
H    -5.6   -9.5   -2.4
H    -1.0    6.4    9.2
H     6.5    9.1   -1.7
C     3.6    8.8    6.1
C    -0.7    0.6  -11.3
H     0.3    0.7  -11.3
H    -9.8    1.7    5.5
H     1.8    8.5    7.2
I     0.6    4.4  -10.5
I    -7.4    8.2    2.7
H    -8.4    4.8   -5.9
C     7.4    5.0   -7.0
C     8.1    8.0   -0.8
H    -4.2   -9.7   -4.3
I     3.6   -5.8    9.1
H   -11.2   -1.9   -1.7
H    -4.2    8.7    6.2
P   -10.0   -4.1    3.9
N     2.8    8.4    7.3
I     5.0   -1.9   10.2
I    10.3    4.7   -2.3
P    -5.5   -7.8    6.6
H     4.7   -9.7   -4.3
H    -9.6    3.7   -5.5
H     4.6    8.7    6.2
H     0.3   -6.5    9.7
I     5.0    8.9   -5.5
H     7.6   -5.0   -7.3
H    -1.1   -0.4  -11.6
I    -5.2    5.1    9.1
I    -9.9   -6.1    1.4
C    -0.8   -6.5    9.7
H    -1.1    4.6   10.7
H     3.0   11.0   -2.9
I    -8.2   -6.2    5.7
H    -8.5    8.1   -0.8
C    -5.2   -9.6   -4.4
H     2.5    7.8   -8.4
H     3.1  -11.0   -2.9
I     0.6   11.8    0.0
H     7.8    4.3   -7.8
I    -5.9   -9.6    3.9
C     7.5   -6.0   -7.0
N     8.2   -6.4   -5.8
N     7.5    9.1   -1.7
H   -11.3    1.2    3.6
H     7.6   -8.6    3.2
I    -9.8   -2.2    6.5
P   -10.0   -0.6   -6.5
C    -5.3    8.8    6.1
H     3.2  -10.2   -5.2
P    -5.6   10.5    1.3
H     3.3    9.9    5.9
H     9.2    4.8   -5.9
I    -1.1    1.3   11.9
H    -5.7    1.8   10.4
N    -9.4    4.6   -5.8
H    -8.4   -6.2   -5.9
P     7.7   -0.4    9.2
P     3.3  -11.5    1.3
H    -0.8  -10.9    5.0
H    -4.3    0.8   11.2
H    -1.1   -7.5    9.3
I    -5.2   -5.8    9.1
I     9.4    4.8    5.7
C     3.8    1.7   11.3
H    -5.8    7.4    7.5
H    -1.1   11.7    2.6
N    -5.9  -10.0   -3.2
H    -1.0  -12.0   -1.3
H     4.5    0.8   11.2
H     3.7    8.6   -7.6
H    -1.0    2.6  -11.8
H    -5.6   -2.1  -10.5
H     7.6    6.0   -7.3
N    11.7    1.0   -3.2
H    -9.8    5.2   -5.0
H    -0.8   11.1    5.0
P    12.1   -0.5    1.3
I     7.7   -2.5   -9.1
H     7.9    9.0   -2.6
I   -11.8   -1.9    2.5
H     8.1   -7.3   -5.5
H     6.4   -9.8    3.6
H    11.3    4.3    2.0
H     9.1    8.1   -0.8
H    11.9   -0.0   -2.9
H     6.5    5.5    8.8
H    -9.9    7.1   -1.1
H     6.5   -5.5    8.8
I    -2.8   -9.3    7.5
N    -1.3    1.7  -12.1
H     7.8    5.4    7.9
H    12.0    1.5   -2.4
I    10.4   -6.3   -2.3
P    -1.1   10.4   -6.5
H    -9.7   -5.8   -5.0
I     0.6   -6.6  -10.5
H     7.9   -5.6    7.9
I     3.6    1.3  -11.8
C    -5.0    1.7   11.3
H    -4.4    2.6   11.4
H    -2.3    1.7  -12.1
I    -1.1    8.5   -9.1
H     4.4    2.6   11.4
I    11.8    1.4    3.9
N     3.1    8.7   -8.4
H     3.2    8.9    8.1
H    -1.1   -6.4   10.7
H    -7.0   -9.9   -3.3
C    -9.6    8.0   -0.8
P     3.3   -7.9   -9.2
P    -1.1   -4.3  -11.7
H    11.3   -5.0    2.2
I    -3.8    5.3  -10.8
H     7.7    3.5    9.3
H    -5.1    8.6   -7.6
H     9.2   -6.2   -5.9
