         400
 sphere cut out from bulk 
H     0.9   -0.2   -0.6
C     1.0    0.5    0.3
H     0.9   -0.1    1.2
H    -1.0    1.1    0.3
N    -0.1    1.5    0.2
H    -0.1    2.1   -0.6
H     1.9    1.0    0.3
H    -0.1    2.1    1.1
I     0.5   -3.5    0.4
I    -3.6    0.9    0.4
I    -1.8   -1.5   -3.0
I     2.7   -1.0   -2.8
H    -3.5   -2.3   -0.7
I    -1.3    3.0   -2.9
H    -3.0   -2.9    1.6
I    -2.0   -1.7    3.6
I     2.5   -0.8    3.7
P     0.7   -3.5   -2.9
I    -1.0    2.8    3.5
H     0.6    0.6   -4.5
H    -2.4   -4.0    0.6
H     3.9   -2.7    0.2
P    -3.8    1.0   -2.8
N    -3.3   -3.6    0.9
P     0.8   -3.5    3.6
C    -4.1   -3.1   -0.2
P    -3.8    1.0    3.6
I     5.3    0.9    0.4
I     0.5    5.5    0.4
I     3.1    3.5   -2.9
H    -2.4    5.0    0.6
C     0.4    1.1   -5.5
H    -5.0   -2.7    0.2
C     4.8   -3.1   -0.2
H    -4.3   -3.9   -0.9
H     5.4   -2.3   -0.7
H     0.1    1.7    5.6
H     0.7    2.1   -5.5
P     5.1    1.0   -2.8
H    -0.6    1.0   -5.8
H    -3.8   -4.4    1.5
H     4.6   -3.9   -0.9
I     3.5    3.7    3.4
H    -3.9    4.6    1.5
P     0.6    5.5   -2.9
P     5.1    1.0    3.6
N    -3.3    5.3    0.9
P     0.8    5.5    3.6
N     1.3    0.4   -6.5
H     2.3    0.5   -6.2
H     1.1   -0.6   -6.5
H     0.8   -0.4    6.6
H    -4.3    5.1   -0.9
H     5.9   -2.9    1.6
I    -1.3   -6.0   -2.9
N     5.6   -3.6    0.9
N     0.1    1.6    6.7
H     5.1   -4.4    1.5
H     4.6    5.1   -0.9
H     0.0   -6.9   -0.6
I    -6.3   -1.0   -2.8
H    -0.0   -6.9    1.1
I     3.2   -5.5   -2.9
I     0.9   -3.3   -6.1
H     5.1    4.6    1.5
H    -3.1    6.1    1.6
H    -3.3   -4.1   -4.7
H     2.1    0.8    6.7
H    -7.0    1.0    0.3
I    -1.0   -6.2    3.5
C     1.1    0.6    7.1
I     3.5   -5.2    3.4
C    -4.2    5.9   -0.2
H    -0.8    1.4    7.0
H    -3.1   -3.6    5.4
I    -4.0    0.8   -6.1
H     3.8    6.3    0.2
H    -4.1   -2.0   -5.8
I    -5.8    3.5   -2.9
I    -6.4   -0.8    3.7
I    -5.5    3.7    3.4
N    -0.1   -7.5    0.2
H     0.4    2.5    7.1
H     3.6   -3.2   -5.8
H     1.2    0.8   -7.4
C     4.8    5.9   -0.2
H    -3.4    4.9   -4.7
H    -2.4   -3.7   -6.2
H    -3.6    6.7   -0.7
I     0.6   -3.7    6.8
H     6.5   -4.0    0.6
I    -3.6    1.3    6.7
N     5.6    5.3    0.9
C    -3.3   -4.0   -5.8
H     4.9   -2.0   -5.8
I     7.1   -1.5   -3.0
I     5.0    0.8   -6.1
H     7.9    1.1    0.3
H    -2.1   -3.9    6.6
C    -8.0    0.5    0.3
H    -1.0   -7.9    0.3
I     6.9   -1.7    3.6
H    -5.1    6.3    0.2
H    -8.1   -0.2   -0.6
N    -4.3   -3.0   -6.2
N    -3.1   -4.0    6.4
H    -3.3    4.0    6.3
H    -8.1   -0.1    1.2
H     6.5    5.0    0.6
N     4.6   -3.0   -6.2
H     1.2    0.5    8.2
H     2.0   -8.0    0.3
I    -5.4   -5.2    3.4
I    -1.9    7.5   -3.0
H    -3.7    4.0   -6.2
H    -3.2    5.4    5.4
C    -3.4    5.0   -5.8
I    -2.1    7.2    3.6
H     5.6   -4.1   -4.7
I     0.8    5.7   -6.1
H    -2.4    5.3   -6.2
I    -5.8   -5.5   -2.9
H    -5.3   -3.2   -5.8
H    -3.7   -2.3    7.4
C     1.0   -8.5    0.3
H     5.3    6.7   -0.7
H     5.8    6.1    1.6
I     0.5    5.3    6.8
H    -2.1    5.1    6.6
N    -3.1    5.0    6.4
I     7.6    3.0   -2.9
H     5.8   -3.6    5.4
I     5.4    1.3    6.7
H    -3.3   -5.0    6.3
H    -3.7   -5.0   -6.2
H     3.9   -3.5    7.0
H     0.8   -6.8   -5.5
H     5.6    4.9   -4.7
I     2.6    8.0   -2.8
I    -3.6   -8.1    0.4
H     0.8    8.8   -0.6
H    -4.4   -2.9   -7.2
H     3.6    5.8   -5.8
N     8.8    1.5    0.2
H     4.5   -2.9   -7.2
C    -3.9   -3.3    7.3
C     5.6   -4.0   -5.8
H     0.8    8.9    1.2
H     5.2    4.0   -6.2
H    -6.6    0.5   -6.2
I     7.9    2.8    3.5
I    -8.4   -3.5    0.4
H     8.9    2.1   -0.6
N    -9.0    1.5    0.2
H     8.9    2.1    1.1
H     0.9   -9.1    1.2
H     0.1   -7.3    5.6
H     0.9   -9.2   -0.6
H    -9.0    2.1   -0.6
H    -5.0   -3.5    7.0
P    -3.8   -8.0   -2.8
I     2.5    8.2    3.7
H    -9.0    2.1    1.1
H     5.2   -2.3    7.4
H     5.6    4.0    6.3
P    -8.3   -3.5   -2.9
C     5.5    5.0   -5.8
C     5.0   -3.3    7.3
P    -8.1   -3.5    3.6
C     0.9    9.5    0.3
H    -8.3    0.6   -4.5
I    -1.0   -0.8   -9.4
H     0.6   -8.4   -4.5
H     5.3   -5.0   -6.2
N     5.9   -4.0    6.4
P    -3.7   -8.0    3.6
H     5.7    5.4    5.4
H    -6.8    0.8    6.7
H     0.5   -6.4    7.1
C     0.5   -7.9   -5.5
N    -4.4    6.0   -6.2
I     5.3   -8.1    0.4
N     4.5    6.0   -6.2
H     3.9    5.5    7.0
H     6.6   -3.7   -6.2
H    -5.3    5.8   -5.8
H     9.8   -0.2   -0.6
H     9.8   -0.1    1.2
H     5.7   -5.0    6.3
I     2.4    2.7   -9.2
H    -3.8   -3.8    8.3
P     5.1   -8.0   -2.8
C     9.9    0.5    0.3
H    -0.5   -8.0   -5.8
H    -4.1    6.9   -5.8
N     0.2   -7.4    6.7
N     5.8    5.0    6.4
P     0.7   -3.6   -9.3
N    -7.6    0.4   -6.5
H   -10.0    1.1    0.3
P    -3.7    1.0   -9.3
I    -1.3   -0.9    9.9
I    -2.0    3.6   -9.2
I    -8.5    5.5    0.4
I     9.5   -3.5    0.4
C    -4.0    5.7    7.3
H    -8.2    2.1   -5.5
H    -1.1   10.1    0.3
I     7.6   -6.0   -2.9
I     3.4   -1.8   -9.4
H     1.9   10.0    0.3
C    -8.5    1.1   -5.5
H    -7.8   -0.6   -6.5
P     5.2   -8.0    3.6
H     8.3    1.0   -5.8
H     4.8    6.9   -5.8
H    -5.0    5.5    7.0
H     6.9   -3.9    6.6
P    -8.3    5.5   -2.9
H    -0.7   -7.6    7.0
H     6.5    5.3   -6.2
H     4.5    6.1   -7.2
H    -4.5    6.1   -7.2
P    -8.1    5.5    3.6
H     5.1   -3.8    8.3
N    -0.2   10.5    0.2
H    -8.1   -0.4    6.6
C     4.9    5.7    7.3
C    -7.8    0.6    7.1
H    -3.9    5.2    8.3
I    -6.3    8.0   -2.8
I     3.2   -1.4   10.0
I    -3.7    9.9    0.4
H     9.5    0.6   -4.5
P     0.7   -3.4   10.0
H    -6.9   -8.0    0.3
P     9.6   -3.5   -2.9
I    -8.1   -3.3   -6.1
I     6.9    7.2    3.6
H     0.5    9.6   -4.5
H    -8.9    1.7    5.6
H    -3.7    6.7    7.4
I     8.0   -6.2    3.5
H     1.1    8.4   -6.5
I     2.7    3.1    9.9
P     5.2    1.0   -9.3
I     7.1    7.5   -3.0
I     2.7  -10.0   -2.8
H    -7.7    0.8   -7.4
P    -3.8    1.1   10.0
H     2.2   -8.1    6.7
P     0.6    5.4   -9.3
H     9.0    1.7    5.6
I     2.6   -9.8    3.7
H     2.4   -8.5   -6.2
H     6.8    5.1    6.6
I    -2.0   -5.4   -9.2
I    -3.5   -7.7    6.7
H     8.1    1.4    7.0
N     1.4   -8.6   -6.5
I    -1.8    3.6   10.1
I     9.4    5.5    0.4
H     0.8    8.6    6.6
I   -10.0    2.8    3.5
H    10.9    1.0    0.3
C     9.4    1.1   -5.5
I    -3.9   -8.2   -6.1
P     9.8   -3.5    3.6
I    -5.5   -1.8   -9.4
I    -1.8  -10.5   -3.0
H     5.1    5.2    8.3
C     1.2   -8.4    7.1
I    -6.5    8.2    3.7
I   -10.3    3.0   -2.9
P    -3.9   10.0   -2.8
H    -0.1   11.1   -0.6
H     1.3   -8.2   -7.4
N    -8.8    1.6    6.7
H    -0.1   11.1    1.1
I     5.2    9.9    0.4
H    -9.5    1.0   -5.8
H     7.9   -7.9    0.3
P    -3.9    9.9    3.6
H     5.2    6.7    7.4
I   -10.7   -1.5   -3.0
H    -7.7    0.5    8.2
P     5.2    1.1   10.0
H     9.6    2.1   -5.5
H    -8.9   -6.9   -0.6
H     8.9   -6.9    1.1
H     8.9   -6.9   -0.6
H    -9.0   -6.9    1.1
H    -8.5    2.5    7.1
I    -8.4   -3.7    6.8
N     9.1    1.6    6.7
H     0.6    0.0  -11.4
P     9.6    5.5   -2.9
I     5.0   -8.2   -6.1
H     1.3    1.5  -11.2
I     2.4   -6.3   -9.2
P     0.6    5.6   10.0
N     1.3    9.4   -6.5
C     0.4   10.1   -5.5
I    -2.0  -10.7    3.6
H     0.9   -9.4    6.6
H    -0.6    9.9   -5.8
P     5.0   10.0   -2.8
I     5.4   -7.7    6.7
H     2.3    9.5   -6.2
I    -5.7   -1.4   10.0
I    -1.7   -5.4   10.1
I    -6.5    2.7   -9.2
N     8.9   -7.5    0.2
C    -7.9   -8.5    0.3
I    -8.1    5.7   -6.1
I   -10.9   -1.7    3.6
H     1.2   -9.6   -6.5
N    -9.0   -7.5    0.2
P     5.1    9.9    3.6
P     9.7    5.5    3.6
H     9.7   -0.4    6.6
H    -3.5  -11.3   -0.7
H     1.2   -8.5    8.2
I     2.7   -5.9    9.9
C     1.1    9.5    7.1
I    11.6   -1.0   -2.8
H     0.2    0.7   11.9
H    -8.2   -6.8   -5.5
H     9.3    2.5    7.1
N     1.1    0.8  -11.9
H    -8.1    8.8   -0.6
H    10.1   -0.6   -6.5
I     9.8   -3.3   -6.1
H   -11.3   -4.0    0.6
I    -8.4    5.3    6.8
I    11.4   -0.8    3.7
I     6.9    3.6   -9.2
H     2.1    9.8    6.7
I    -6.2  -10.0   -2.8
H     0.0   10.7    5.6
H    -9.7    1.4    7.0
I    -6.3    3.1    9.9
H    -8.1    8.9    1.2
N    10.3    0.4   -6.5
I    -4.0    9.7   -6.1
H    -8.0   -9.1    1.2
I   -10.2   -6.0   -2.9
H    -8.0   -9.2   -0.6
I    -9.9   -6.2    3.5
H    -7.0   10.0    0.3
I     9.5   -3.7    6.8
I    -6.4   -9.8    3.7
I     3.4    7.2   -9.4
C    10.1    0.6    7.1
I    -1.1   11.8    3.5
I     7.9   -0.8   -9.4
H     3.9  -11.7    0.2
H     1.2    9.8   -7.4
H    -3.0  -11.9    1.6
H    -6.5   -8.5   -6.2
C    -8.0    9.5    0.3
I    -1.4   12.0   -2.9
H   -11.4    5.0    0.6
H     0.7   11.1   -5.5
H     2.0    0.4  -12.2
H     0.9    2.3   12.2
H   -12.0   -2.9    1.6
I     4.9    9.7   -6.1
H    -6.8   -8.1    6.7
I     0.6  -12.5    0.4
I    -1.1    8.2   -9.4
N     0.1   10.6    6.7
H     5.4  -11.3   -0.7
H    -0.9   10.4    7.0
H     1.1    9.5    8.2
I     7.6   -0.9    9.9
I   -12.6    0.9    0.4
H    -8.3   -8.4   -4.5
H    10.2    0.8   -7.4
H    -9.9   -7.9    0.3
H   -12.5   -2.3   -0.7
I     7.0   -5.4   -9.2
H    -5.0  -11.7    0.2
C     0.4    1.5   12.7
H     7.8   10.1    0.3
C    -4.0  -12.1   -0.2
H    -8.8   -7.3    5.6
H    -8.5   -6.4    7.1
H    -0.6    1.7  -12.6
H     4.4   -2.5  -11.8
N   -12.2   -3.6    0.9
I     9.5    5.3    6.8
P     0.7  -12.4   -2.9
C    -8.4   -7.9   -5.5
P    -3.6   -8.0   -9.3
I    -3.6   10.3    6.7
I     9.8    5.7   -6.1
H    -4.6   -2.5  -11.8
I     7.1    3.6   10.1
I    -1.3    8.1    9.9
