         400
 sphere cut out from bulk 
H    -0.2    0.9   -0.1
H     0.7    0.2    1.1
N     0.4    1.1    0.7
H    -0.2    1.5    1.4
C     1.5    2.0    0.3
H     2.1    1.5   -0.4
I    -2.4   -0.1   -1.4
H     1.1    3.0   -0.1
I     0.6   -2.2    2.3
H     2.1    2.2    1.2
I     1.5   -2.2   -2.2
H    -2.7   -2.2    0.1
H    -1.7   -2.9    1.2
H    -1.0   -3.5   -0.9
N    -2.4   -3.1    0.5
I    -2.7    0.7    2.9
P    -0.7   -0.8   -4.2
I     0.9    1.9   -3.7
C    -1.8   -4.0   -0.5
P     3.1   -3.4    0.4
I     4.6   -0.6    0.7
I    -2.2    4.2    0.1
P    -4.4    1.8    0.4
H     3.7   -1.1   -3.0
H    -3.2   -3.6    1.0
P    -0.6   -0.8    5.0
I     1.4    1.6    4.6
H    -2.6   -4.2   -1.3
H    -1.5   -4.9   -0.0
H    -1.1    3.4   -4.1
H     4.7    0.3   -2.9
N     4.6   -0.7   -3.3
H    -3.3    3.8   -3.1
H    -2.8    3.5    3.9
H     3.8   -0.0    4.7
I    -2.2   -3.6   -4.4
H     1.5   -5.1   -3.1
I     5.1    2.8   -2.2
H     5.3   -1.3   -2.9
H    -4.9   -0.5    3.8
I     1.7    5.9   -1.5
I     1.5   -6.2    0.1
N    -1.8    3.9   -4.6
H     3.8   -0.0   -5.1
H     0.2   -5.2    3.9
I    -6.4   -0.6    0.7
H    -5.6   -1.3   -2.9
I     4.8    3.7    2.3
H    -2.2    5.3   -3.1
H    -1.7    4.9    3.9
C    -2.8    4.6   -3.7
H     5.0   -1.9    3.7
H    -2.3    3.2   -5.3
I    -2.7    0.7   -6.0
P     3.0    4.4   -4.1
I     0.9    5.9    3.0
C     4.6   -0.7   -4.8
C    -2.7    4.5    4.2
I    -2.7   -3.2    5.3
H     0.2   -5.2   -4.3
P     6.6    1.8    0.4
I    -5.9    2.8   -2.2
C     0.9   -5.7   -3.7
H    -6.3    0.3   -2.9
P    -0.6    6.9    0.4
I     1.2   -1.5   -6.7
H     2.0   -5.4    3.9
C     4.6   -0.6    5.3
H    -4.7   -1.8    4.9
H     4.5   -1.7   -5.1
I     4.6   -4.4    3.0
N    -5.4   -1.2    4.4
H    -1.3    4.6   -5.2
H     6.0   -0.5    3.8
N     5.5   -1.2    4.4
I     5.4   -4.4   -1.5
P     3.0    4.4    4.9
N    -6.4   -0.7   -3.3
H     0.4   -6.5   -3.1
C     1.0   -5.8    4.2
H    -5.9   -1.9    3.7
H     4.1   -1.3    5.9
I    -5.6   -4.4   -1.5
H    -3.5    5.2    3.9
I     1.4   -2.4    6.8
H    -5.4   -0.3   -5.1
I    -2.5   -6.7    2.3
H    -5.2    5.4   -0.0
I    -6.2    3.7    2.3
H    -2.0    3.9    6.1
H    -3.5    5.1   -4.3
H     5.6   -0.3   -5.1
I    -1.9    0.7    7.5
N    -2.7    4.5    5.7
H     4.7    6.1   -1.3
H     5.1    0.1    5.9
H     5.7    5.4   -0.0
H     1.1   -4.9    6.1
H     1.1    1.0    7.8
H     0.9   -6.8    3.9
H     4.0    6.8    1.0
H    -7.3   -1.1   -3.0
C    -6.3   -0.7   -4.8
H     6.2   -1.8    4.9
H     2.4   -5.7   -5.2
N     1.9   -6.4   -4.6
I    -2.2   -7.6   -2.2
H    -3.7    4.1    6.0
H     0.4    1.6   -8.1
N     1.0   -5.8    5.7
I    -6.4   -4.4    3.0
H    -4.7    6.8   -0.9
H     1.9    2.3   -7.8
C    -6.4   -0.6    5.3
H    -5.8    0.1    5.9
C     5.4    6.3   -0.5
P    -4.3   -6.0   -4.1
C    -5.5    6.3   -0.5
H    -6.5   -1.7   -5.1
I     0.9    5.8   -6.1
H    -1.5   -3.0   -7.8
H     2.6   -7.0   -4.1
I     4.2    2.9   -6.8
H    -7.1   -0.0    4.7
P    -0.7   -8.5    0.4
H     7.7   -3.6    1.0
H     8.3   -2.2    0.1
H    -2.6    5.5    6.1
P    -7.9   -3.4    0.4
H     0.0   -6.2    6.0
H     2.7    1.7    8.1
I     8.6   -0.1   -1.4
I    -2.2    8.1   -2.2
N     4.9    7.2    0.5
C     1.8    1.2    8.5
I     8.2    0.7    2.9
H    -7.1   -0.0   -5.1
H     4.8   -7.4   -0.1
P    -4.3   -6.0    4.9
N     1.2    2.0   -8.5
I     4.6   -4.5   -6.1
H    -6.3    6.1   -1.3
H     1.4   -7.1   -5.3
I    -3.1    8.1    2.3
H    -8.8    1.5   -0.4
H     1.7   -6.4    6.1
I     5.2    3.0    6.8
N     8.6   -3.1    0.5
H     7.7    3.8   -3.1
H    -6.9   -1.3    5.9
I     1.2    5.1    7.6
H    -8.9    2.2    1.2
H     2.1    0.2    9.0
H     2.1    0.2   -9.0
H    -5.4    7.4    1.2
H    -3.9   -3.6   -7.6
H     1.3    8.4    3.7
H     4.6    8.1    0.1
H     6.3    6.8   -0.9
H     5.6    7.4    1.2
H    -1.5   -3.6    8.6
I    -5.8    3.0    6.8
H     8.4   -4.2   -1.3
H     0.9    2.9   -8.9
N    -6.1    7.2    0.5
C    -2.1   -3.2   -8.7
I     5.0    6.8   -4.4
H    -2.5   -2.2    8.9
H     3.5   -8.8    1.4
H     1.0    3.0    9.1
H    -6.2   -7.4   -0.1
H     1.6    9.0   -2.9
H     8.1    3.5    3.9
C    -9.5    2.0    0.3
I     8.7    4.2    0.1
H    -2.5   -2.2   -9.1
P     3.0   -3.4   -8.6
H    -5.2   -8.1    1.2
H    -0.0    9.3   -3.0
C     1.8    1.1   -9.5
H    -6.9    6.8    1.0
P    -4.3    1.7   -8.6
I     0.9    9.7    0.7
H     9.3   -2.9    1.2
C     5.2   -8.3    0.3
H    -2.9   -5.0   -7.9
N    -3.3   -4.1   -8.3
P     6.7   -6.0   -4.1
N     1.2    2.1    9.5
I    -2.8    4.5   -8.3
I    -6.4   -4.5   -6.1
H     7.5    5.2    3.9
P    -8.0    4.4   -4.1
I    -9.5   -2.2   -2.2
I    -6.7    2.9   -6.8
C     9.1   -4.0   -0.5
I     4.6    7.1    5.3
I    -5.9    6.8   -4.4
H     7.5    5.1   -4.3
H     3.5   -9.4   -0.1
H     5.8   -8.1    1.2
C    -2.1   -3.1    9.3
H     0.8    8.6   -5.1
N     4.1   -9.2    0.7
C     8.2    4.6   -3.7
C    -5.8   -8.3    0.3
H     0.4    1.6   10.0
I     1.0   -9.7    2.9
I     0.9   -5.8   -8.3
H     2.6    8.6    4.9
H    -5.1   -8.8   -0.4
P     6.7   -6.0    4.9
I     8.2    0.7   -6.0
N     0.9    9.6   -3.3
H    -1.5   -3.6   -9.5
N     1.8    9.1    4.4
I    -2.1   -7.4    6.8
I     4.6   -8.4   -3.7
I     5.1   -1.0   -8.9
H   -10.2    0.2    1.1
P    -8.0    4.4    4.9
H    -9.9    3.0   -0.1
H    -6.4    8.1    0.1
I     8.3   -3.2    5.3
C     8.3    4.5    4.2
H     7.3    4.1    6.0
H     1.0    0.9  -10.3
I     8.7   -3.6   -4.4
H     2.7    1.6  -10.0
I     4.9   -5.2    7.6
P     3.0   -3.3    9.4
I    -3.0   -7.4   -6.8
P    -4.3    1.8    9.4
I     5.1   -1.0    9.1
H     4.4    5.4   -7.9
H    -3.8   -4.2    8.9
H     5.8   -8.8   -0.4
I     1.3  -10.4   -1.4
H     8.7    3.2   -5.3
H    10.0   -3.5   -0.9
H     9.4   -4.9   -0.0
N   -10.6    1.1    0.7
H     8.8    5.3   -3.1
H     2.0    2.3   10.3
H     3.4    6.7   -7.6
I    -5.9   -1.0   -8.9
I    -2.3    8.0    6.8
I    -9.6    1.6    4.6
H     2.3    9.8    3.8
I    -1.9    0.7  -10.6
H    -1.5   -2.9   10.2
H     0.4    9.0    5.9
H    -2.6  -10.1   -2.9
H    10.8    0.9   -0.1
H    -3.9   -4.3   -9.2
C     0.9    9.7   -4.8
I   -10.4   -2.2    2.3
I   -10.0    1.9   -3.7
I    -5.9   -1.0    9.1
I    -6.4    7.1    5.3
H    10.8    1.5    1.4
N    -3.2   -4.0    9.7
N     9.2    3.9   -4.6
N     8.2    4.5    5.7
H    -3.0   10.5    1.1
I    -6.0   -5.2    7.6
H     7.1   -3.6   -7.6
P     6.7    1.7   -8.6
H     1.0   10.6   -2.9
I     8.5   -6.7    2.3
I    -2.7    4.6    9.7
P    -0.7    7.0   -8.6
I     5.1   -8.7    4.6
I    -9.3    5.9   -1.5
H     4.4  -10.1    1.1
C     0.9    9.8    5.3
I    -6.3   -8.4   -3.7
P    10.3   -0.8   -4.2
N     4.0    6.3   -8.3
H     9.3    4.9    3.9
H    -9.5   -5.1   -3.1
H    -9.0   -5.4    3.9
H   -11.2    0.9   -0.1
H     9.9    3.4   -4.1
P    -4.4    9.5   -4.2
I    -2.7  -10.9    0.7
H     3.4    6.1    8.9
I     1.0   -5.8    9.7
H     0.1   10.3    4.7
I    -9.5   -6.2    0.1
I    -2.5    8.8   -6.7
I     1.0   -9.6   -6.0
H   -11.2    1.5    1.4
H     1.9   10.0   -5.1
I     4.9   10.2   -1.4
N    11.4    1.1    0.7
I    -5.9   -8.7    4.6
I     1.2   -1.5   11.3
P    10.3   -0.8    5.0
H     3.4    6.1   -9.2
N    -6.9   -9.2    0.7
H     0.1   10.3   -5.1
H     9.0    3.9    6.1
I     7.9    8.1    2.3
I     1.4   -2.4  -11.2
H    -8.6   -5.7   -5.2
H    -1.2  -10.9    3.8
H    -2.9   -4.9   10.1
P    -4.3    9.6    5.0
H    -7.5   -8.8    1.4
H    -8.4   -7.0   -4.1
H    -6.6    5.4   -7.9
H    -3.8   -3.6   10.4
I     1.2    5.1  -10.5
H    -8.3    1.7    8.1
P     6.7    1.8    9.4
H     8.4    5.5    6.1
H    11.7    0.2    1.1
I     9.0    0.7    7.5
P    -0.7    7.0    9.4
I     8.8   -7.6   -2.2
N    -2.7  -11.0   -3.3
H    -3.4  -10.3    4.7
H    -1.7  -10.6   -5.1
H    -3.9   11.2   -0.1
H     9.7    4.6   -5.2
H    -5.2    7.4   -7.8
N    -3.3   11.4    0.7
I    -9.5   -2.4    6.8
I    -9.8   -1.5   -6.7
H    -1.6   11.9   -0.4
H    -2.1  -10.2    5.9
I    11.6   -2.2    2.3
I    -6.1   10.2   -1.4
H    -7.5   -9.4   -0.1
I   -10.1    5.9    3.0
H    -3.4  -10.4   -5.1
N     7.7   -4.1   -8.3
N    -9.1   -6.4   -4.6
H    -5.2    6.7    8.6
H    -6.5  -10.1    1.1
H     1.4   10.5    5.9
H    -9.0    2.3   -7.8
H    -1.9  -11.6   -2.9
H     7.1   -4.2    8.9
I     8.8    8.1   -2.2
H     5.7    7.4   -7.8
C   -10.1   -5.7   -3.7
P    -0.6   -8.6   -8.6
P    -8.0   -3.4   -8.6
H     4.4    5.4   10.1
N     4.0    6.3    9.7
I     4.6   11.0    2.9
C    -2.6  -11.0   -4.8
C   -10.0   -5.8    4.2
I     1.8   -9.6    7.5
P     3.0  -11.2   -4.2
P     6.6    9.5   -4.2
H    -3.6  -11.4   -3.0
H     5.8    6.7    8.6
I    -2.7    0.8   12.0
H     7.1   -4.3   -9.2
H     8.1   -5.0   -7.9
P   -11.6   -0.8   -4.2
C     5.1    7.2   -8.7
C    -2.7  -10.9    5.3
I     4.3    3.0   11.3
H    -5.3   -8.1   -7.8
H    12.1    3.0   -0.1
P    10.3    6.9    0.4
H   -11.9   -3.5   -0.9
N    -1.7  -11.6    4.4
P     2.9   12.1    0.4
H     8.4   -2.2    8.9
H     4.6   -7.4   -8.9
I     8.2    4.5   -8.3
N    -7.0    6.3   -8.3
H   -10.8   -5.2    3.9
H     5.6   -8.1   -7.8
P     3.1  -11.1    5.0
C    -2.2   12.4    0.3
C    -9.2    1.2    8.5
H     4.1   -8.7   -8.1
H     4.7   -7.4    9.1
H     1.0  -12.5    0.1
H     8.4   -2.2   -9.1
H    -3.9   11.9    1.4
H     9.4   -3.0   -7.8
H    -9.9   -4.9    6.1
I    11.9    1.9   -3.7
H    -9.9    1.0    7.8
H    -8.9    0.2    9.0
P     6.6    9.6    5.0
H    -7.6    6.7   -7.6
P   -11.6   -0.8    5.0
C    12.5    2.0    0.3
I     5.1    2.9  -11.2
H    -8.9    0.2   -9.0
H    -2.0    3.9  -11.9
C    -5.8    7.2   -8.7
