         400
 sphere cut out from bulk 
H     0.8    1.4   -0.4
I    -1.8   -0.6   -0.8
C     0.4    2.4   -0.5
H    -0.7    2.4   -0.5
P     0.4   -2.7    0.0
I     1.5   -1.0    2.5
H     0.5    2.7    1.5
H     0.8    2.9   -1.4
I     2.6   -1.1   -1.7
N     0.9    3.2    0.7
H     1.9    3.1    0.7
H    -3.6   -1.0    1.0
H    -2.4   -0.7    3.1
H     0.1    0.5   -4.0
H     0.5    4.1    0.7
I    -1.3    2.3    3.5
H     0.1   -1.9   -4.1
H     3.9   -1.5    1.9
N    -4.0   -1.5    1.9
C    -3.5   -0.7    3.1
H    -3.6   -2.4    1.9
C     0.6   -0.0   -4.8
H     1.7   -0.2   -4.5
P    -4.0    1.0   -2.5
H    -3.9    0.3    3.0
I    -1.7   -4.3    1.9
I    -0.3   -4.2   -2.7
I     4.4    2.7    0.2
N     0.0   -1.4   -4.9
I    -1.8    3.2   -3.6
P     0.8    0.6    5.1
I    -4.6    2.7    0.2
H    -1.0   -1.3   -5.2
N     5.0   -1.5    1.9
H     5.3   -1.0    1.0
H    -5.0   -1.5    1.9
P     4.9    1.0   -2.5
H    -3.8   -3.3   -2.6
H    -3.9   -1.2    4.0
I     2.6   -5.1    0.7
H     0.6    0.5   -5.7
I     2.9    2.9   -4.2
H     5.1    0.3    3.0
H     0.5   -1.9   -5.7
H     3.3   -4.7   -1.7
H     3.0   -4.1   -3.2
I     3.1    2.9    4.4
H     5.4   -2.4    1.9
H    -0.6    5.4   -3.0
I    -3.5   -0.8   -5.1
I    -1.4    6.0    0.7
C     5.5   -0.7    3.1
P    -3.6    4.4    2.7
H    -3.3   -5.1   -2.4
H     5.1   -1.2    4.0
N     3.6   -4.8   -2.7
C    -3.9   -4.4   -3.0
I    -1.3   -1.4    6.3
I    -6.3   -1.1   -1.7
H    -0.7    6.4   -1.7
H     5.2   -3.3   -2.6
H     1.7    6.0   -2.4
N    -0.4    6.3   -2.7
H     1.3    4.9    4.8
H    -3.7   -4.4   -4.0
H    -3.6   -3.8    4.8
P     0.4   -6.6    2.7
I     7.1   -0.6   -0.8
H     0.3    3.1   -6.5
H     6.5   -0.7    3.1
C     5.0   -4.4   -3.0
H     3.4   -5.7   -3.0
C     1.0    6.7   -3.0
P     5.4    4.4    2.7
H    -2.9    2.4    6.4
I     1.3   -5.1    5.3
H    -5.6   -4.7   -1.7
I     3.0   -1.1    6.8
I     5.5   -0.8   -5.1
I     2.3   -3.9   -6.1
H    -0.2    5.5    5.3
N    -5.3   -4.8   -2.7
H    -1.0    7.0   -3.2
H    -7.1    3.1    0.7
I     3.3    6.8    1.9
N     0.8    5.4    5.5
I    -5.8    2.9    4.4
H    -2.5   -4.5    6.0
H     1.2    6.7   -4.0
I    -6.1    2.9   -4.2
H    -6.0   -4.1   -3.2
I    -7.5   -1.0    2.5
H     5.2   -4.4   -4.0
H     5.7   -5.1   -2.4
C    -3.5   -4.3    5.7
H     5.3   -3.8    4.8
H     0.8    4.9    6.4
P     0.1   -6.2   -5.3
I     0.5    2.6    7.7
I    -6.4   -5.1    0.7
C     0.7    3.6   -7.4
P    -3.9    4.9   -5.3
H     1.2    7.7   -2.6
H    -8.2    1.4   -0.4
H    -4.5   -7.0    0.7
H     4.5   -7.0    0.7
H     1.8    3.6   -7.4
I    -0.6   -8.4    0.2
I    -2.7    6.0    5.3
C    -3.1    2.4    7.5
H    -5.6   -5.7   -3.0
H    -3.1   -7.9    0.7
H    -7.3   -0.2   -4.5
H    -4.1   -3.8    6.5
I    -2.1   -4.5   -7.0
H     3.8   -5.6    5.3
I    -4.3    6.9   -2.7
H     3.8    2.7    7.2
H     4.2    1.1    7.4
P     0.7   -3.3    7.9
H    -2.5    1.8    8.1
I     7.2    3.2   -3.6
H     8.3    2.4   -0.5
I     7.3   -4.3    1.9
H    -3.7   -6.2    4.8
N    -8.1    3.2    0.7
H    -8.1    2.9   -1.4
I     7.7    2.3    3.5
H     0.6    1.8   -8.5
I     4.7    6.9   -2.7
H     0.3    4.6   -7.5
P     5.0    4.9   -5.3
H     1.3    7.3    4.8
C    -8.5    2.4   -0.5
H    -4.8    1.1    7.4
N    -4.2   -5.7    5.5
P    -8.5   -2.7    0.0
I     2.5   -0.0   -8.6
N    -4.1   -7.9    0.7
C     1.4    6.8    5.7
H     1.4    8.6    1.9
C     5.4   -4.3    5.7
H     4.9   -3.8    6.5
I     2.2   -7.9   -3.6
N     0.2    2.8   -8.5
H    -8.5    2.7    1.5
I    -5.7    6.8    1.9
H    -0.8    2.8   -8.6
H    -3.0    3.5    7.9
H     6.0    2.4    6.4
N     4.4    2.0    7.7
I    -6.0   -1.1    6.8
P    -3.6    8.4    0.0
N    -4.6    2.0    7.7
P    -4.4   -2.4   -7.8
N     4.8   -5.7    5.5
H     2.5    6.6    6.0
I    -3.3    3.3   -8.0
H    -5.2   -5.6    5.3
H    -5.2    2.7    7.2
H    -4.1   -8.2   -1.4
H     3.3   -8.7   -0.5
N     4.8   -7.9    0.7
P     4.6   -2.4   -7.8
I    -2.1   -8.2   -4.2
H    -8.5    4.1    0.7
H     5.3   -6.2    4.8
I    -1.8   -8.2    4.4
I    -1.7    7.2   -6.1
H     8.0   -1.3   -5.2
C    -8.3   -0.0   -4.8
P    -8.1    0.6    5.1
H     4.8   -8.2   -1.4
H     4.5   -8.4    1.5
H    -4.5   -8.4    1.5
I     7.5    6.0    0.7
C     9.4    2.4   -0.5
H    -8.8    0.5   -4.0
P     9.4   -2.7    0.0
H    -7.3    6.0   -2.4
C     4.4   -8.7   -0.5
H    -3.4   -1.4    9.1
I     2.7   -8.7    3.5
C     5.8    2.4    7.5
H    -0.1    9.6    1.9
H     0.9    7.3    6.5
H    -0.3   -4.1   -8.9
C    -4.5   -8.7   -0.5
I    -6.6   -3.9   -6.1
H    -4.1   -6.2    6.4
H     9.7    1.4   -0.4
N     1.0    9.6    1.9
H     6.5   -4.5    6.0
H     4.1    2.1    8.8
H     9.1    0.5   -4.0
H     5.9   -7.9    0.7
H     9.4    2.7    1.5
H    -9.6    2.4   -0.5
H    -8.9   -1.9   -4.1
H     0.6    3.2   -9.4
P     5.4    8.4    0.0
I     7.6   -1.4    6.3
I    -2.2   -0.8   -9.7
I     8.7   -4.2   -2.7
I     2.9    6.6   -7.0
H     9.0   -1.9   -4.1
H     4.8   -6.2    6.4
H    -0.3   -2.7   -9.8
H    -8.4    0.5   -5.7
I     6.3    6.0    5.3
H     1.3   10.1    1.0
H    -4.8    2.1    8.8
I    -1.4   10.0   -1.7
H    -7.7    4.9    4.8
H     9.8    2.9   -1.4
N    -8.9   -1.4   -4.9
N     9.8    3.2    0.7
I     5.6    3.3   -8.0
H     9.4    4.1    0.7
N     9.0   -1.4   -4.9
H    -8.4   -1.9   -5.7
H    -5.6   -8.7   -0.5
P    -0.0  -10.1   -2.5
I    -1.5   -5.4    8.7
H     8.4    5.4   -3.0
N     0.1   -3.7   -9.8
H     1.1   -3.7   -9.7
H     5.9    3.5    7.9
H     6.5    1.8    8.1
I    -9.2   -4.2   -2.7
H    -4.2   -9.7   -0.4
H     8.3    6.4   -1.7
I    -7.6   -5.1    5.3
C     9.6   -0.0   -4.8
I    -2.5   10.1    2.5
I    -6.4   -0.0   -8.6
H     5.6   -1.4    9.1
I    10.4   -1.0    2.5
I     0.2   -1.6   10.6
H     1.1    9.9    4.0
H     4.3   -6.5   -7.5
H    -3.9    9.2   -4.1
I     6.9   -4.5   -7.0
C    -7.9    6.7   -3.0
C    -3.8   -1.9   10.0
H     4.8   -9.7   -0.4
I   -10.8   -0.6   -0.8
H     1.0   -8.7    6.4
H     4.1   -1.9    9.9
H    -7.2    3.6   -7.4
H    -4.7   -6.5   -7.5
C     1.5   10.4    3.1
H    -7.7    6.7   -4.0
H    -3.2   -7.5   -7.4
H    -3.4   -2.9   10.0
I     3.4    5.7    8.7
I     3.1   10.5   -0.8
N     8.6    6.3   -2.7
H     1.0   -7.6    7.9
H    -6.5    6.6    6.0
I    -6.8   -7.9   -3.6
H     7.9    7.0   -3.2
I   -10.2    2.3    3.5
P     9.8    0.6    5.1
H     9.5    0.5   -5.7
H     4.3   -8.0   -6.5
H    -1.2   -8.4    7.2
H     2.5   10.4    3.1
I     0.7   -7.8   -8.0
P    -8.6   -6.6    2.7
H     0.1  -10.8    3.0
I     2.9   -4.9    9.6
H     9.5   -1.9   -5.7
H    -4.9   -1.9    9.9
H     5.0    9.2   -4.1
H    -8.7    3.1   -6.5
N    -8.2    5.4    5.5
H    -4.7   -8.0   -6.5
H    -7.8    7.7   -2.6
I    -6.2   -8.7    3.5
H   -10.0   -1.3   -5.2
H    -3.5    9.1   -5.7
H    10.9    3.1    0.7
P     1.2    4.1   10.5
C    -4.3   -7.5   -7.4
H    -9.6    5.4   -3.0
I    -6.1    6.6   -7.0
C     5.2   -1.9   10.0
H    -8.1    4.9    6.4
P    -4.4    1.6  -10.4
I     6.9   -8.2   -4.2
C     0.8   -8.7    7.5
H    -2.3   -1.1   11.2
C     4.7   -7.5   -7.4
I    -1.1    6.2    9.6
P     4.6    1.6  -10.4
H    10.7   -0.2   -4.5
I     1.5   10.3   -5.1
H    -7.6    7.3    4.8
H     8.7    5.5    5.3
N    -9.3    6.3   -2.7
N    -4.0    9.7   -4.9
I   -10.6   -4.3    1.9
P    -3.3    7.8    7.9
C    -7.5    6.8    5.7
I     3.6   -4.1  -10.3
C    -8.3    3.6   -7.4
H    -9.6    6.4   -1.7
H    -7.6    8.6    1.9
N    -3.3   -1.1   11.2
P     0.6    8.7   -7.8
I     7.1   -8.2    4.4
H     9.3    3.1   -6.5
I    -8.5    2.6    7.7
H    -3.7   -0.2   11.2
I    11.6   -1.1   -1.7
H     4.0    9.8   -5.2
I   -10.8    3.2   -3.6
P     9.4   -6.6    2.7
H   -11.4   -0.7    3.1
I     3.3    1.8   11.2
I    -5.5    5.7    8.7
C    -0.4   -4.4  -11.0
H     5.6   -2.9   10.0
I     8.4   -8.4    0.2
H     1.1   11.4    3.0
I     6.7   -0.8   -9.7
P    -8.2   -3.3    7.9
I     2.2  -11.7   -0.8
I     7.3    7.2   -6.1
N    -0.6   -9.0    7.7
H    -1.4   -4.4  -11.0
H    -9.2    5.5    5.3
N     5.0    9.7   -4.9
H     5.8   -7.5   -7.4
H    -2.3   10.9   -4.5
H     4.1  -10.6   -4.0
I   -10.4    6.0    0.7
I    -5.8   10.5   -0.8
P    -8.9   -6.2   -5.3
H     5.5    9.1   -5.7
H    -8.4    1.8   -8.5
I     2.3    3.7  -11.3
H    -4.3    7.0   -8.9
I   -10.3   -1.4    6.3
H     8.1    2.8   -8.6
I    -1.0   10.0    6.8
I     3.6    9.7    6.3
P     9.0   -6.2   -5.3
H    -5.0    9.8   -5.2
H     0.0   -5.4  -10.9
H     0.4  -12.1    1.0
C     0.5  -11.8    3.1
H     4.7    7.0   -8.9
I     6.4   10.1    2.5
H    -1.4   -0.4  -12.2
H     1.6  -11.8    3.1
H    -4.8  -10.6   -4.0
I    -5.4   -4.1  -10.3
H    10.2    4.9    4.8
I    -4.5   -8.5    7.7
I     4.5   -8.5    7.7
H    -8.7    4.6   -7.5
H     3.2   -8.3   -8.6
H     5.3   -0.2   11.2
P    -4.1  -10.5    5.1
I    -6.0   -4.9    9.6
C    10.0    6.7   -3.0
P     0.9   12.1   -2.5
H     1.5   -9.3    8.1
I    -0.4    7.0  -10.3
N     9.7    5.4    5.5
H    10.6    6.0   -2.4
I     9.4    2.6    7.7
H    -0.8  -10.0    7.4
H     0.1   -3.9  -11.9
C    -3.4   11.1   -4.8
P     5.7    7.8    7.9
I    -2.3  -12.2   -1.7
N     5.6   -1.1   11.2
N    -8.7    2.8   -8.5
H    -2.9    7.4   -9.7
H    -0.8   -9.0    8.8
H    -3.3  -11.3   -4.5
H   -10.0    7.0   -3.2
I    11.5   -5.1    0.7
H    -6.4   10.4    3.1
I    -0.9    2.5   12.3
P     4.8  -10.5    5.1
N     4.2   -8.3   -8.5
N    -8.0    9.6    1.9
I    10.3   -5.1    5.3
I    -5.6    1.8   11.2
C     9.6    3.6   -7.4
H    -7.6   10.1    1.0
H   -12.6   -1.0    1.0
I     7.4   -5.4    8.7
H     9.8    4.9    6.4
H    -8.1    7.3    6.5
I     7.6   10.0   -1.7
