         400
 sphere cut out from bulk 
H     1.2   -1.8    1.6
I     1.0    1.3    2.2
P     2.0    1.8   -0.8
H    -1.2   -1.8    1.9
I    -2.8   -1.1    0.0
I     2.6   -1.3   -1.2
H    -2.9    1.2    1.1
C     0.7   -2.6    2.1
N    -0.6   -2.2    2.6
H    -2.1    2.7    1.1
H    -0.4   -1.4    3.3
I    -0.7    3.3   -1.3
H     0.5   -3.4    1.3
H    -2.7    0.2   -2.7
H    -2.0    1.8   -2.8
N    -2.9    2.2    1.5
H     0.7   -2.9   -2.7
H    -1.1   -3.0   -2.6
N    -2.5    1.0   -3.3
H    -2.0    1.8    3.3
H     1.3   -3.0    2.9
H    -1.1   -2.9    3.2
H    -1.9    0.7   -4.1
C    -0.1   -3.4   -3.0
H    -3.8    2.6    1.1
C    -2.9    2.3    2.9
H    -0.1   -4.5   -2.7
I     2.8    2.4   -3.8
H    -3.8    1.7    3.3
H    -0.2   -2.4   -4.8
H    -3.0    3.3    3.2
N    -0.2   -3.4   -4.5
I     4.4    3.5    0.1
C    -3.8    1.5   -3.9
H    -4.4    1.9   -3.1
P     2.1    1.8    5.1
I    -0.3   -0.1   -5.9
I     0.2   -5.9    0.1
P     5.1   -3.0   -0.8
P    -5.2   -3.0   -0.8
I    -0.3   -0.1    6.0
I     4.4   -3.6    2.1
I    -4.1   -2.4   -3.8
H    -4.3    0.6   -4.4
H     0.7   -3.8   -4.9
H    -3.6    2.2   -4.6
H    -1.0   -3.9   -4.9
I    -1.7    5.9    2.1
P    -1.0    6.5   -0.8
I     4.6    0.1    4.8
I    -5.9    3.5    0.1
H     5.8    1.9   -3.1
I    -2.4   -4.5    4.7
H     4.1    4.9   -2.7
I     1.8    4.9    4.7
H     6.5    2.6    1.1
I    -5.9   -3.6    2.1
H     2.3   -6.8    1.1
P     2.1    1.8   -6.8
I    -5.7    0.1    4.8
H     6.0    0.6   -4.4
H     6.5    1.7    3.3
H    -0.2   -2.4    7.1
H     3.1   -6.1    3.2
H     7.4    1.2    1.1
I     7.5   -1.1    0.0
H     3.1    6.4   -2.6
I     6.2   -2.4   -3.8
C     6.5    1.5   -3.9
H     4.7    6.0    1.3
N     7.4    2.2    1.5
C     4.0    6.0   -3.0
P    -5.1   -3.0    5.2
H     3.1    6.5    3.2
H     4.0   -6.7    1.1
P     5.2   -3.0    5.2
I    -7.7   -1.3   -1.2
I    -4.9   -6.1   -1.3
I     0.0    7.0   -3.8
P    -2.2   -7.6   -0.8
I     2.8   -4.7   -5.9
H     0.7   -3.8    7.0
H     7.6    0.2   -2.7
N     3.2   -7.2    1.5
H     3.2    5.5   -4.9
H    -1.0   -3.9    7.0
H    -1.9    0.7    7.8
I     2.8   -4.7    6.0
I    -1.4   -7.1   -3.8
N    -0.2   -3.4    7.4
C     7.3    2.3    2.9
I     5.4   -6.1   -1.3
I    -3.3    4.8   -5.9
P    -0.9    6.5    5.2
H    -5.6    6.0    1.3
H     1.7   -7.6   -3.1
H     3.0    7.6    1.9
C     3.2   -7.2    2.9
H    -6.2    4.9   -2.7
I    -3.3    4.8    6.0
H    -3.6    2.2    7.3
H     6.7    2.2   -4.6
H    -4.8    6.4    2.9
I     1.4    8.4    0.0
N     7.8    1.0   -3.3
P    -8.3    1.8   -0.8
N     3.6    7.3    2.6
I     4.6    0.1   -7.2
N     4.0    6.1   -4.5
H     4.9    6.5   -2.7
C     4.9    6.8    2.1
H     7.3    3.3    3.2
H     8.2    2.7    1.1
H    -4.3    0.6    7.5
H     2.3   -7.7    3.3
H    -0.4   -1.4   -8.6
I    -7.5    2.4   -3.8
I    -2.4   -4.5   -7.2
H    -5.4    6.5   -2.7
H     8.2    1.8   -2.8
I     2.8    2.4    8.1
C    -5.4    6.8    2.1
H     5.5    6.4    2.9
H     4.9    5.6   -4.9
H     2.5   -7.2   -4.6
H     3.2   -8.2    1.1
I     1.8    4.9   -7.2
P    -5.1   -3.0   -6.7
C    -3.8    1.5    8.0
I    -3.6    8.2   -1.2
H    -2.0    1.8   -8.6
P     5.2   -3.0   -6.7
I    -3.1   -8.2    2.2
N    -2.5    1.0    8.6
H     8.3    1.8    3.3
I    -5.7    0.1   -7.2
H     4.1   -7.7   -2.8
C     2.3   -8.0   -3.9
C    -6.3    6.0   -3.0
H    -4.9    7.6    1.6
H    -5.4    5.6   -4.9
H     4.1   -7.6    3.3
H    -6.3   -6.7    1.1
H    -1.1   -2.9   -8.8
H     8.4    0.7   -4.1
H    -9.1   -1.8    1.6
P    -0.9    6.5   -6.7
H     3.9    7.1   -4.8
I    -4.1   -2.4    8.1
P    -2.1   -7.7    5.1
H     9.1   -1.8    1.9
H     5.4    7.6    1.6
H     3.8    8.0    3.3
H    -2.0    1.8    9.1
H     3.2    5.5    7.0
N    -0.6   -2.2   -9.3
C    -0.1   -3.4    8.9
H    -3.8    1.7   -8.6
I    -9.3    1.3    2.2
H    -2.7    0.2    9.2
H     6.0    0.6    7.5
H     1.3   -3.0   -9.1
C    -2.9    2.3   -9.0
H     0.7   -2.9    9.3
N     3.6   -8.4   -3.3
H    -3.0    3.3   -8.7
H    -1.1   -3.0    9.3
N    -6.3    6.1   -4.5
P    -8.2    1.8    5.1
H    -8.9   -3.0    2.9
I     1.0    1.3   -9.7
H    -7.2   -6.1    3.2
H    -7.2    6.4   -2.6
H     1.8   -8.8   -4.4
H    -4.4    1.9    8.8
H     9.2   -3.0   -2.6
H     1.5    9.6   -2.7
H     6.7    2.2    7.3
C    -9.6   -2.6    2.1
H    -7.2    6.5    3.2
H     3.4   -9.2   -2.7
H     9.2   -2.9    3.2
I     9.6    3.3   -1.3
N    -6.7    7.3    2.6
H    -0.1   -4.5    9.2
H     4.9    5.6    7.0
C     0.7   -2.6   -9.9
N    -7.1   -7.2    1.5
H    -7.1    5.5   -4.9
I     7.9   -4.5    4.7
H    -6.2   -7.7   -2.8
I     6.9    4.8   -5.9
H    -1.2   -1.8  -10.0
N     9.7   -2.2    2.6
H    -9.6   -2.9   -2.7
I     6.9    4.8    6.0
H    -6.2   -7.6    3.3
N     4.0    6.1    7.4
C     6.5    1.5    8.0
H    -9.8   -3.4    1.3
P    -2.1   -7.7   -6.8
I     6.2   -2.4    8.1
H    -5.4    5.6    7.0
I     0.5   -9.4    4.8
H     9.9   -1.4    3.3
C    -7.1   -7.2    2.9
H     2.5   -7.2    7.3
H    -8.0   -6.8    1.1
H     4.2   -8.8   -4.1
H     1.2   -1.8  -10.3
I    -7.5   -4.7   -5.9
I     8.6    5.9    2.1
H    -6.3    7.1   -4.8
I     6.7    8.2   -1.2
H    -7.3    7.6    1.9
I    -7.5   -4.7    6.0
I     0.0    7.0    8.1
I    -1.5    9.5    4.8
H     5.8    1.9    8.8
H     3.9    7.1    7.1
H     1.3   10.6    1.1
P    -8.2    1.8   -6.8
I    -1.4   -7.1    8.1
I    -8.5    4.9    4.7
H    -6.5    8.0    3.3
I    -1.6  -10.7   -1.2
H    -7.0   -8.2    1.1
H     6.5    1.7   -8.6
H    -0.1   10.0   -4.4
I     3.4  -10.5    0.0
H     3.1   -6.1   -8.7
N     1.6   10.4   -3.3
I     7.1   -8.2    2.2
N    -2.9    2.2  -10.5
I     2.6   -1.3   10.7
H     2.3   10.1   -4.1
C    10.1   -3.4   -3.0
H     0.5   -3.4  -10.6
I    -0.7    3.3   10.6
P     8.1   -7.6   -0.8
H     9.3   -3.9   -4.9
H     4.1    4.9    9.2
H    -2.9    1.2  -10.8
N    -6.7   -8.4   -3.3
H   -10.7   -1.4    3.3
I     4.4   -3.6   -9.8
I    -7.5    2.4    8.1
H     3.1    6.5   -8.8
H    -2.1    2.7  -10.8
P     9.3    6.5   -0.8
N   -10.9   -2.2    2.6
H    10.8   -3.4    1.3
C   -10.4   -3.4   -3.0
H    10.1   -2.4   -4.8
H    -9.6   -3.8   -4.9
H    -7.1    5.5    7.0
H    -6.1   -8.8   -4.1
P     2.0    1.8   11.1
N    -6.3    6.1    7.4
C     4.0    6.0    8.9
H    10.2   -4.5   -2.7
H     8.4    0.7    7.8
C    11.0   -2.6    2.1
I    -1.7    5.9   -9.8
C     2.3   -8.0    8.0
H    -7.8   -7.2   -4.6
N    10.1   -3.4   -4.5
I    10.0   -0.1   -5.9
C     0.4   10.9   -3.9
I   -11.0    3.3   -1.3
H    -8.0   -7.7    3.3
I    11.3    1.3    2.2
I    10.0   -0.1    6.0
H   -10.4   -4.5   -2.7
N     7.8    1.0    8.6
H     0.4   11.1    3.3
I     7.9   -4.5   -7.2
I   -10.0   -5.9    0.1
I     3.8    9.3   -5.9
H    11.0   -2.9   -2.7
H    -0.3   11.3   -3.1
H    -3.0  -11.2    1.6
H     3.1    6.4    9.3
H     1.8   -8.8    7.5
H     1.7   -7.6    8.8
I     3.8    9.3    6.0
H     2.1   11.2   -2.8
H    11.5   -1.8    1.6
N     1.3   11.6    1.5
H   -11.5   -1.8    1.9
H     2.3   -7.7   -8.6
I     0.5   -9.4   -7.2
H    -3.8    2.6  -10.9
H     7.3    3.3   -8.7
H    -6.9   -9.2   -2.7
C     7.3    2.3   -9.0
H   -10.5   -2.4   -4.8
H    -6.3    7.1    7.1
N   -10.5   -3.4   -4.5
H    -8.6   -7.6   -3.1
C     3.2   -7.2   -9.0
H     2.1   11.2    3.3
C    -8.0   -8.0   -3.9
I    -5.9   -3.6   -9.8
H     7.6    0.2    9.2
P    -4.1   11.2   -0.8
I     8.9   -7.1   -3.8
I    -1.5    9.5   -7.2
H   -11.4   -3.0   -2.6
I    -5.1   10.7    2.2
H     8.3    1.8   -8.6
H    -4.8    6.4   -9.1
I     5.2   10.7    2.2
I    -4.5   -9.5   -5.9
H     0.4   12.0    1.1
I    10.5   -5.9    0.1
C     1.2   11.7    2.9
I    -4.5   -9.5    6.0
H   -11.3   -2.9    3.2
H    -6.2    4.9    9.2
I   -10.6   -0.1   -5.9
I    -8.5    4.9   -7.2
H     4.1   -7.6   -8.6
I    -8.9    8.4    0.0
H    -4.6  -10.8    3.3
I   -10.6   -0.1    6.0
I    -2.8   -1.1  -11.9
H     9.3   -3.9    7.0
N     3.6    7.3   -9.3
P     8.2   -7.7    5.1
I    -2.8   -1.1   11.9
H     4.9    6.5    9.3
H     2.1   12.1    1.1
H    11.6   -3.0    2.9
H     3.8    8.0   -8.6
H     5.5    6.4   -9.1
H     8.2    1.8    9.1
C    -6.3    6.0    8.9
H     4.9  -11.3    1.9
P    12.3    1.8   -0.8
P     1.0  -12.4   -0.8
H    -9.6   -3.8    7.0
H     4.2   -8.8    7.8
P     9.4    6.5    5.2
H    10.1   -2.4    7.1
H    -5.4    6.5    9.3
P     5.1   -3.0   11.1
H    -0.1   10.0    7.5
P    -5.2   -3.0   11.1
N     3.6   -8.4    8.6
H     0.6   11.7   -4.6
H     4.1   -7.7    9.1
I    -6.9  -10.5    0.0
H    11.0   -3.8   -4.9
I     2.0  -11.9   -3.8
I     5.8   -9.5   -5.9
H    -5.4  -11.3    1.9
I     5.8   -9.5    6.0
H     5.7  -10.8    3.3
C    -3.5  -12.1    2.1
H   -12.4    2.7    1.1
H   -12.3    1.8   -2.8
I    -6.4    9.3   -5.9
N    -4.7  -11.6    2.6
H    -7.2   -6.1   -8.7
I    -6.4    9.3    6.0
P     6.2   11.2   -0.8
H    -7.8   -7.2    7.3
I    -3.3   11.8   -3.8
P    -1.0    6.5   11.1
H   -12.2    0.7   -4.1
H   -11.3   -3.9   -4.9
H   -12.3    1.8    3.3
H   -10.5   -2.4    7.1
H     6.5    2.6  -10.9
C     4.9    6.8   -9.9
H     3.0    7.6  -10.0
I   -10.2    7.0   -3.8
I    12.8   -1.3   -1.2
P    -4.1   11.2    5.1
N     7.4    2.2  -10.5
H     2.3   10.1    7.8
P     2.0    1.8  -12.7
N    10.1   -3.4    7.4
H    -8.5   -8.8   -4.4
P   -11.3    6.5   -0.8
I    -1.7   12.9    0.1
H     2.3   -6.8  -10.9
I    10.3    7.0   -3.8
H    -7.2    6.5   -8.8
H     4.7    6.0  -10.6
H    -6.2   -7.6   -8.6
H     9.2   -2.9   -8.8
H    -3.4  -12.3   -2.7
H    -8.9   -3.0   -9.1
I   -13.0   -1.1    0.0
I    -3.1   -8.2   -9.7
I     4.4    3.5  -11.8
P     8.2   -7.7   -6.8
H    -2.8  -12.5    2.9
