         400
 sphere cut out from bulk 
H    -1.1   -0.2   -1.5
H    -1.3    1.6    1.4
I     0.7    2.2   -1.1
I     1.5   -1.5    1.6
C    -1.4   -0.7   -2.4
H     0.5   -1.7   -2.6
H    -0.6   -2.6   -1.7
N    -0.5   -2.0   -2.5
I    -3.0   -0.9    1.0
P     3.3    0.7   -0.0
H    -1.2   -0.1   -3.3
C    -1.4    2.5    2.1
H    -2.4   -1.1   -2.4
H     0.5    2.2    3.0
H    -1.1    3.4    1.6
N    -0.5    2.3    3.3
H    -0.7    1.4    3.8
P    -1.2   -3.0    2.6
I     3.1   -1.2   -2.6
H    -0.7   -2.5   -3.4
H    -2.4    2.6    2.5
H     2.5   -3.6    0.8
I    -0.9   -4.7   -0.1
I    -3.7    2.8   -1.5
I     3.2    2.4    2.7
H    -0.5    3.1    3.9
P    -1.1    4.3   -2.6
I    -1.3   -0.9    5.1
N     3.0   -4.6    0.6
H     3.7   -1.4    3.8
H     3.7    0.2    4.2
H     3.2   -4.4   -1.4
P    -5.6    0.7   -0.0
H     2.2   -5.3    0.6
H     3.4    1.4   -4.4
H    -4.3   -3.9   -0.5
H     2.0   -1.0    5.5
H     2.1    2.4   -5.0
C     3.8   -4.6   -0.6
I     5.9   -0.9    1.0
N     3.9   -0.7    4.5
H     4.6   -3.9   -0.5
I    -1.3    2.5   -5.4
H     3.4    3.2   -4.0
I     5.2    2.8   -1.5
H     2.1    5.7    0.6
H     3.5   -4.8    1.5
C     3.1    2.4   -4.7
H    -4.0   -0.8    4.8
I    -1.0    6.3   -0.1
I    -5.7   -1.2   -2.6
H    -5.2   -1.4    3.8
I     0.6   -1.7   -6.3
C     3.1   -1.0    5.8
I     1.6   -5.2   -3.8
I     0.6   -5.2    4.2
I    -2.8   -4.4   -4.1
H    -5.2    0.2    4.2
I    -5.7    2.4    2.7
N    -5.0   -0.7    4.5
H     4.2    5.3   -0.7
I    -3.9   -4.4    3.6
C    -5.1   -4.6   -0.6
H     4.9   -0.8    4.8
P     3.4   -3.1   -5.2
H     6.5   -1.1   -2.4
I     1.5    5.7   -3.8
N     2.9    6.4    0.6
H     4.2   -5.6   -0.7
H    -5.5    1.4   -4.4
I     0.5    5.8    4.2
H    -4.7    5.3   -0.7
H     3.4    6.2    1.5
I     1.4    2.3    6.7
P    -1.0   -6.7   -2.6
H     3.4   -2.0    6.1
H    -5.7   -4.4   -1.4
H     3.3   -0.3    6.5
H    -4.6   -5.6   -0.7
H    -5.4   -4.8    1.5
H    -6.3   -3.6    0.8
H     6.5    2.6    2.5
C     3.7    6.3   -0.6
H    -3.9    2.7   -5.7
H     3.1    6.6   -1.4
H    -5.5    3.2   -4.0
N    -5.9   -4.6    0.6
I     5.0   -4.4    3.6
P     3.3    4.5    5.3
N     4.0    2.7   -6.0
I    -7.4   -1.5    1.6
I    -2.9    3.1    6.4
H     2.5    7.3    0.8
H    -1.0   -7.5    1.6
C    -5.7    2.4   -4.7
H     7.6    1.6    1.4
H     7.8   -0.2   -1.5
C     7.5   -0.7   -2.4
H    -0.4   -4.4   -6.6
H     3.8    2.0   -6.7
P    -1.1    0.5   -7.9
I    -3.8   -0.9   -6.9
P    -1.2    0.8    7.9
H     5.0    2.7   -5.7
H    -1.2   -3.5    7.2
P    -5.5   -3.1   -5.2
C     7.5    2.5    2.1
N    -4.9    2.7   -6.0
C    -5.1    6.3   -0.6
H     3.7    3.6   -6.3
I    -2.9    6.5   -4.1
C    -5.8   -1.0    5.8
H    -0.7    4.9   -6.7
H    -4.3    7.1   -0.5
H     7.7   -0.1   -3.3
H    -5.4    6.2    1.5
H     4.5    7.1   -0.5
I    -4.0    6.6    3.6
H    -5.5   -2.0    6.1
P    -1.2    8.0    2.6
I    -8.2    2.2   -1.1
H    -6.7   -5.3    0.6
H    -0.7    8.3   -1.7
I     6.1   -4.4   -4.1
H    -5.6   -0.3    6.5
I     5.1   -0.9   -6.9
H     7.8    3.4    1.6
H    -5.1    2.0   -6.7
P     7.7   -3.0    2.6
H    -0.9    5.0    7.1
H    -0.4   -7.8    3.9
N    -6.0    6.4    0.6
H    -6.8    2.4   -5.0
C    -1.3   -8.5    2.1
H     8.3   -2.6   -1.7
H    -6.9   -1.0    5.5
I     0.8   -8.8   -1.1
H    -5.8    6.6   -1.4
H    -6.8    5.7    0.6
P    -5.6    4.5    5.3
H    -8.4   -1.7   -2.6
N    -0.3   -5.2   -7.2
H    -5.1    3.6   -6.3
I     4.9    6.6    3.6
N     8.4   -2.0   -2.5
P     3.4   -6.5    5.3
H    -2.3   -8.4    2.5
I    -3.6   -8.2   -1.5
H    -0.6   -6.1   -6.7
H     8.1    1.4    3.8
H    -8.4    2.2    3.0
I     7.5   -0.9    5.1
H     8.1   -2.5   -3.4
H    -0.8    8.5   -3.4
I     1.6    2.0   -8.9
C    -1.4   -4.2    8.1
P     7.8    4.3   -2.6
I     8.0   -4.7   -0.1
N    -0.4    5.7   -7.2
H     0.7   -5.3   -7.5
I     5.9    3.1    6.4
H     0.6   -8.7    3.0
N    -0.4   -8.7    3.3
H    -0.8   -5.9    7.1
N     8.4    2.3    3.3
H    -0.5    6.6   -6.6
N    -0.6    9.0   -2.5
H     3.4   -7.8   -4.0
H     0.5   -5.1    7.9
H     0.6    5.6   -7.5
H    -1.2   -9.3    1.4
I     0.7   -1.3    9.4
I     3.3   -8.5    2.7
H    -2.5   -4.5    8.1
N    -0.5   -5.4    7.9
H     0.4    9.3   -2.6
I     7.6    2.5   -5.4
I     3.1   -4.7    7.9
H    -2.3   -4.9   -8.0
N    -0.6    5.6    7.9
I     1.4    9.5    1.6
H     8.4    3.1    3.9
I    -7.3   -5.2   -3.8
I    -3.7   -0.7    9.0
I     6.0    6.5   -4.1
H    -6.4    7.3    0.8
H     3.6   -1.3   -9.0
H    -1.1   -3.7    9.0
H     0.4    5.8    7.9
I     5.3   -8.2   -1.5
H    -0.9   -4.1   -8.9
C    -1.2   -5.0   -8.4
I     3.4   -5.1   -7.8
H     9.4   -1.7   -2.6
N    -9.4   -2.0   -2.5
I     9.6    2.2   -1.1
H    -9.5   -2.6   -1.7
P    -5.5   -6.5    5.3
P     3.3    7.9   -5.2
I    -1.2   -8.4   -5.4
I     7.9    6.3   -0.1
H    -0.8    4.9    8.7
H     3.1    3.2    9.0
H     2.6   -0.2   -9.7
H   -10.0   -0.2   -1.5
I    -7.4    5.7   -3.8
H     9.4    2.2    3.0
H     2.2   -8.5   -5.0
N    -9.4    2.3    3.3
I    -2.9    2.6   -9.5
H    -0.7   -9.5    3.8
I     3.3    5.9   -7.8
C     3.2   -8.6   -4.7
I    -7.5    2.3    6.7
H    -5.4   -7.8   -4.0
H    -2.4    6.0   -8.0
H     2.2   -1.8   -9.9
N     3.0   -1.1   -9.9
C    -1.3    5.9   -8.4
I     5.1   -0.7    9.0
H   -10.2    1.6    1.4
H     3.8   -7.3   -6.3
H    -9.6    1.4    3.8
H    -1.3    7.4    7.2
H    -2.5    9.9   -2.4
H    -1.2    5.1   -9.1
H    -9.6   -2.5   -3.4
I     3.0    6.3    7.9
I     3.1    9.7   -2.6
I    -2.9   -7.9    6.4
H    -5.3   -1.3   -9.0
I    -8.2   -1.7   -6.3
I    -5.6   -8.5    2.7
C   -10.2   -0.7   -2.4
H   -10.1   -0.1   -3.3
C    -1.4   10.2   -2.4
I    -3.1   10.1    1.0
I    -8.3   -5.2    4.2
I    10.4   -1.5    1.6
P     7.9   -6.7   -2.6
H    -9.4    3.1    3.9
C    -1.5    6.8    8.1
H   -10.0    3.4    1.6
H    -0.7   -6.0    8.7
H    -2.5    6.4    8.1
I    -0.9   -1.3  -10.6
C   -10.3    2.5    2.1
H    -3.8   -8.3   -5.7
P   -10.0   -3.0    2.6
P     3.4  -10.2   -0.0
H     4.1    1.9    9.8
I    -5.5   -5.1   -7.8
I    -5.8   -4.7    7.9
I    -1.1    2.8   10.4
H    -1.1   -5.9   -9.1
I    -9.8   -4.7   -0.1
H     3.6    9.5    3.8
H    -1.2   10.7   -1.5
H     6.6   -8.4    2.5
H    -5.1   -7.3   -6.3
N     4.0   -8.2   -6.0
P    -5.5    7.9   -5.2
C     3.7    2.9    9.9
I    -8.4    5.8    4.2
H     7.9   -7.5    1.6
H     3.5   -9.5   -4.4
P     7.7    0.8    7.9
P     7.8    0.5   -7.9
I     1.5   -8.7    6.7
H    -4.8    1.9    9.8
H     7.6   -3.5    7.2
P   -10.0    4.3   -2.6
I     0.6    9.2   -6.3
H    -5.8    3.2    9.0
I    -5.6    5.9   -7.8
N    -4.8   -8.2   -6.0
H     5.1   -8.3   -5.7
P     3.3   -2.7   10.5
H     6.4   -4.5    8.1
H    -1.0    6.9   -8.9
C    -5.7   -8.6   -4.7
H     3.3    8.9    6.1
H    -1.0  -11.2   -1.5
P     7.6    8.0    2.6
I    -1.4   10.1    5.1
H    -1.3   10.9   -3.3
I     5.9    2.6   -9.5
H     2.0    2.3   11.1
I   -10.2   -0.9    5.1
H     1.9    9.9    5.5
H    -5.2    9.5    3.8
H     6.6   -4.9   -8.0
N    -5.9   -1.1   -9.9
C     7.6   -8.5    2.1
H    -4.4    3.6   10.0
I     9.5   -5.2    4.2
I     9.5   -1.7   -6.3
C    -5.2    2.9    9.9
H    -1.1  -11.0   -3.3
H    -6.3   -0.2   -9.7
H   -11.3   -1.1   -2.4
H     4.5    3.6   10.0
H     8.5   -4.4   -6.6
I    -5.8    9.7   -2.6
P    -5.5  -10.2   -0.0
I    -7.3    2.0   -8.9
H    -1.2    7.3    9.0
H     8.2    4.9   -6.7
I    -5.9    6.3    7.9
I     5.8   10.1    1.0
I    -9.9    6.3   -0.1
H    -4.2   -0.4  -10.9
I   -10.2    2.5   -5.4
C     7.5   -4.2    8.1
I     6.0   -7.9    6.4
I     9.4    5.8    4.2
C     3.9   -1.2  -11.1
H    -5.4   -9.5   -4.4
H     8.2    8.3   -1.7
P     3.4    4.1  -10.5
H     8.0    5.0    7.1
N     3.8   10.2    4.5
H     3.9   -8.9   -6.7
H   -11.3    2.6    2.5
C     3.0    9.9    5.8
N     2.8    2.9   11.1
H     4.7   -0.4  -10.9
H    -4.0   10.2    4.8
H    -6.7   -8.5   -5.0
I   -11.9   -0.9    1.0
I    -8.1   -8.8   -1.1
H     6.5    6.0   -8.0
C    -1.3  -11.7   -2.4
H     6.4    9.9   -2.4
H    11.4   -3.6    0.8
H    -6.6   -1.8   -9.9
P     3.2   11.7   -0.0
H     3.8  -10.7    4.2
H    -1.3   -1.8   11.9
H    -1.1   -0.0   12.1
H     6.3    6.4    8.1
H     7.7   -9.3    1.4
H     8.4   -7.8    3.9
I    -7.4    9.5    1.6
H     2.4    3.9   11.3
H     4.3   -2.2  -11.2
H     8.1    8.5   -3.4
P    -5.6   -2.7   10.5
H    -5.6    8.9    6.1
H    -9.3   -4.4   -6.6
C    -5.0   -1.2  -11.1
P    12.2    0.7   -0.0
I    -2.9  -11.8    1.0
P    -9.9   -6.7   -2.6
H     4.8   10.2    4.8
H    10.9   -1.0    5.5
H    -5.0   -8.9   -6.7
H    11.1   -5.3    0.6
H     8.3   -6.1   -6.7
H     8.1   -5.9    7.1
N    -5.1   10.2    4.5
H    -4.6   -2.2  -11.2
I    10.4   -5.2   -3.8
H    -0.6    0.8  -12.2
H    11.0    2.4   -5.0
H     3.2   -7.8    9.0
N     8.5   -5.2   -7.2
H    -8.2   -5.3   -7.5
I    12.0   -1.2   -2.6
H    11.0    5.7    0.6
H    -8.3   -8.7    3.0
H     3.3   -0.9  -11.9
C     7.6   -5.0   -8.4
I    10.4    5.7   -3.8
H     7.7   -3.7    9.0
H    -1.0    3.2  -12.0
H     3.6   11.2    4.2
H    -2.3  -12.0   -2.4
N     8.3    9.0   -2.5
I    10.3    2.3    6.7
N     8.5    5.7   -7.2
H    -9.9   -7.5    1.6
H     8.4    6.6   -6.6
I    -8.2   -1.3    9.4
N     8.5   -8.7    3.3
H    -8.3    5.6   -7.5
I     7.7   -8.4   -5.4
P    -5.5    4.1  -10.5
H    -5.1  -10.7    4.2
H     7.9   -4.1   -8.9
H    -8.4   -5.1    7.9
I     1.6  -12.4    1.6
I    12.1    2.4    2.7
H    -9.6    4.9   -6.7
I    -3.1   -4.3   11.5
C    -1.4   -0.9   12.6
P   -10.0    0.5   -7.9
N    11.8   -4.6    0.6
N     8.3   -5.4    7.9
I     1.7   -9.0   -8.9
