         400
 sphere cut out from bulk 
P    -0.1   -0.1   -1.7
I     2.3    0.0    0.4
I    -1.4   -2.1    0.4
P    -0.1    0.1    2.5
I    -1.4    2.1    0.3
H    -3.7    2.1   -0.7
H     4.1    1.3   -0.8
I     0.9    2.1   -3.9
I     1.0   -2.2   -3.8
H    -0.4    4.4    1.1
I    -2.7   -0.1   -3.7
H    -4.1    1.2   -2.1
H    -3.3   -3.0    1.6
H     4.1   -1.6    1.9
H    -0.8   -4.7   -0.9
N    -4.5    1.8   -1.3
H     3.5    2.7   -2.7
I     1.0    2.1    4.6
I     1.0   -2.1    4.7
I    -2.6    0.0    4.6
N     4.8    1.8   -1.3
H     0.9   -5.2   -1.0
H     3.8    3.6   -1.2
H     3.4   -2.8    3.1
H    -5.2    1.3   -0.8
H     0.2   -4.5   -3.2
N    -0.1    5.3    1.4
C     4.2    3.0   -2.0
C    -0.1   -5.5   -1.3
C     4.3   -2.3    2.7
H     0.8    5.5    1.0
H     5.2    1.2   -2.1
H     0.7    4.7    3.3
N    -4.2   -3.4    2.1
H    -5.2   -1.6    1.9
P    -0.3   -0.1   -5.9
H    -4.4   -1.9    3.5
H     5.6    2.1   -0.7
H    -4.3    3.6   -2.5
N    -0.1   -5.4   -2.8
C    -0.1    5.4    2.9
H    -1.0    5.1    3.3
C    -5.0   -2.3    2.7
H    -0.8    6.1    1.0
C    -5.1    3.0   -2.0
H     4.6   -4.0    1.4
H    -3.8   -4.1    2.8
H    -4.7   -4.0    1.4
H     4.9   -1.9    3.5
H    -0.2    4.1   -4.9
H    -1.1   -5.6   -3.2
N     5.2   -3.4    2.1
H    -0.4   -6.5   -1.0
H     5.0    3.6   -2.5
P    -0.3    0.1    6.7
H    -5.5    3.6   -1.2
I     3.2    6.1    0.2
I     3.5   -5.9    0.3
H     6.0   -3.0    1.6
H     3.5   -3.0   -5.2
H     0.5   -6.1   -3.2
H    -5.8    2.7   -2.7
I    -7.0    0.0    0.4
H    -4.6   -1.7   -5.2
H     0.2    6.4    3.2
H     0.9   -4.3    5.7
H     4.7   -1.7   -5.2
H    -5.9   -2.8    3.1
N    -0.7    4.7   -5.6
H    -1.5    5.1   -5.1
H     5.5   -4.1    2.8
H     3.5    3.1    5.8
H    -4.1   -3.5   -5.2
C     4.4   -2.7   -5.6
H    -1.0    4.1   -6.4
I     6.7   -0.1   -3.7
H     4.7    1.7    5.8
H    -4.7    1.7    5.8
H    -4.0    3.4    5.8
C    -4.9   -2.7   -5.6
I    -3.4   -6.0   -3.9
I    -3.6    5.9   -4.0
H    -1.3   -5.2    6.0
C     4.5    2.7    6.2
N     0.8   -5.2    6.2
I     6.7    0.0    4.6
H     5.2   -3.5   -5.2
I    -2.3    7.8    0.2
I    -3.6    5.9    4.4
H     1.0   -6.0    5.5
I    -3.6   -6.0    4.4
I     8.0   -2.1    0.4
I     8.0    2.1    0.3
I     2.2   -0.0   -8.0
C    -4.9    2.7    6.2
I    -5.9   -5.9    0.3
I    -1.6    2.1   -7.9
H     0.4    6.4   -5.4
H    -5.9   -3.0   -5.2
I    -1.5   -2.1   -8.0
C     0.2    5.8   -6.2
H     3.8   -1.9   -7.4
H     1.0    5.3   -6.6
H     5.3    3.4    5.8
I    -6.2    6.1    0.2
C    -0.6   -5.3    6.8
I    -2.4   -8.3    0.2
N     4.4   -2.7   -7.0
H    -5.8    3.1    5.8
H    -3.9   -2.5   -7.4
H     1.5   -5.3    6.9
H    -0.7   -4.6    7.5
N    -4.9   -2.7   -7.0
I     2.1   -7.9   -4.0
H     3.8    2.0    8.0
I     2.2    0.0    8.8
I    -1.5   -2.0    8.8
I     5.8    5.9   -4.0
H     4.1   -3.6   -7.4
N     4.4    2.7    7.7
I    -1.5    2.1    8.9
I     5.9   -6.0   -3.9
H    -4.0    2.5    8.0
I     5.8    5.9    4.4
H    -0.4    6.3   -6.9
P     9.2   -0.1   -1.7
I     2.1   -8.0    4.5
P     4.5   -8.1   -1.9
I     5.8   -6.0    4.4
H    -5.5   -1.9   -7.4
P     4.6    7.9    2.3
I    -8.4   -2.2   -3.8
I    -8.4    2.1   -3.9
I     2.2    8.3   -4.0
N    -4.9    2.7    7.7
P     4.6    8.1   -1.9
H     5.4   -2.5   -7.4
P    -4.7    8.1   -1.9
P    -4.8    7.9    2.3
P     9.2    0.1    2.5
I     2.2    8.2    4.5
P    -4.8   -8.1   -1.9
P    -9.4   -0.1   -1.7
P     4.5   -8.2    2.3
H    -0.6   -6.3    7.3
H     4.1    3.7    8.0
I    -8.3    2.1    4.6
I    -8.3   -2.1    4.7
H    -0.3    9.7   -1.0
H     8.5   -4.7   -0.9
H     3.8    1.9   -8.8
H    -5.2   -3.6   -7.4
P    -9.5    0.1    2.5
P    -4.9   -8.2    2.3
H    -4.0    2.5   -8.8
H    -5.6    2.0    8.0
H     8.9    4.4    1.1
H    -8.5   -5.2   -1.0
H     5.4    2.5    8.0
P    -0.3    0.0  -10.1
H    -8.5    5.5    1.0
H    -0.9  -10.1    1.0
H    -5.2    3.7    8.0
H     0.1   -9.7    3.2
H     8.3    5.1    3.3
H     3.8   -1.9    9.4
H    -8.6    4.7    3.3
H     4.1    3.6   -8.8
H    -0.7   -4.6   -9.3
H     8.2   -5.6   -3.2
H    -3.9   -2.5    9.4
N     4.4    2.7   -9.1
I     7.0    7.8    0.2
H     0.6   10.0   -3.2
I     3.0  -10.1    0.2
H     8.6    6.1    1.0
H     5.4    2.5   -8.8
H    -5.6    1.9   -8.8
H     7.8    5.1   -5.1
I     3.5    6.0   -8.1
H    -9.1   -4.5   -3.2
I     3.4   -5.9   -8.2
H     0.7  -10.6    1.0
N    -4.9    2.7   -9.1
I    -7.2   -0.0   -8.0
N     9.2    5.3    1.4
C    -0.0   10.7   -1.3
C     9.2   -5.5   -1.3
H    -9.8    4.4    1.1
P     9.1   -0.1   -5.9
I     6.9   -8.3    0.2
H     4.1   -3.5    9.4
I     3.6   10.2    0.3
H    -5.2    3.6   -8.8
I     3.4   -5.8    8.6
I   -10.7   -2.1    0.4
I   -10.7    2.1    0.3
N    -0.2  -10.8    1.4
P    -0.3   -0.1   10.9
N    -9.4    5.3    1.4
H     9.5   -4.5   -3.2
C    -9.5   -5.5   -1.3
H     1.0   10.9   -1.0
N     9.2   -5.4   -2.8
P     4.5   -8.0   -6.1
N     4.4   -2.6    9.8
H    -8.5   -4.3    5.7
H     8.9   -6.5   -1.0
H    -5.5   -1.9    9.4
H    -1.0   10.6   -3.2
I     3.5    6.0    8.7
N    -0.0   10.7   -2.8
H     5.4   -2.5    9.4
H     0.3   -9.7   -5.4
C     9.3    5.4    2.9
P    -4.8   -8.0   -6.1
C    -0.2  -10.8    2.9
P     4.6    8.1   -6.1
I    10.3    2.1   -3.9
P    -4.7    8.1   -6.1
H     9.2    4.1   -4.9
C    -9.4    5.4    2.9
H     8.3    4.1   -6.4
I    10.3   -2.2   -3.8
N    -4.9   -2.6    9.8
H    -8.9   -6.1   -3.2
H    -1.0    4.1   10.4
H   -10.2   -4.7   -0.9
N    -9.5   -5.4   -2.8
P     9.1    0.1    6.7
P    -9.6   -0.1   -5.9
H    -5.2   -3.5    9.4
I     7.8    2.1   -7.9
P    -4.6    8.0    6.5
H     1.5   -5.3   -9.9
N     8.6    4.7   -5.6
H     8.0   -5.2    6.0
I    -7.1    0.0    8.8
P     4.7    8.0    6.5
C    -0.6   -5.4  -10.0
I    -3.3   10.1   -3.9
I     7.8   -2.1   -8.0
I    -7.2   -7.9   -4.0
P     4.6   -8.1    6.5
P    -4.7   -8.1    6.5
H    -9.5    4.1   -4.9
H    -0.6   -6.4   -9.5
H    -0.7   11.4   -0.9
H    10.2   -5.2   -1.0
H     1.0    5.3   10.2
I    10.4    2.1    4.6
I    -3.4   10.1    4.4
I    -3.7  -10.2   -4.0
I    10.4   -2.1    4.7
H    10.1    4.7    3.3
H     1.1   10.1    5.5
H    -1.1  -11.1    3.3
H    10.2    5.5    1.0
I    -7.1    8.3   -4.0
H    -9.2    6.4    3.2
I    11.6    0.0    0.4
I    -7.2   -8.0    4.5
I    -2.3    8.1   -8.1
I    -5.9    6.0   -8.1
H    -8.4   -6.0    5.5
P    -9.6    0.1    6.7
H    -7.8   -5.3    6.9
I    -2.4   -8.1   -8.1
I    -7.1    8.2    4.5
H    -9.7   -6.5   -1.0
H    -0.4    6.4    9.9
I    -5.7   10.2    0.3
I    -3.7  -10.2    4.4
I    -6.0   -5.9   -8.2
N    -8.5   -5.2    6.2
H    -0.6  -11.7    1.1
H   -10.1    6.1    1.0
C     4.5    2.7  -10.6
N     0.8   -5.3  -10.6
H    -8.3    5.3   -6.6
I    -6.3  -10.1    0.2
H     9.5    6.4    3.2
H     0.6  -11.4    3.3
I     7.8   -2.0    8.8
I    -6.0   -5.8    8.6
H     3.5    3.0  -11.0
H     0.9   -4.4  -11.1
H   -10.4    5.1    3.3
C    -4.9    2.7  -10.6
I     7.8    2.1    8.9
H     9.8   -6.1   -3.2
H     4.6    1.7  -11.0
H    -0.5   -9.8   -6.9
H    -4.7    1.7  -11.0
I    -2.4   -8.0    8.7
I    -5.9    6.0    8.7
I    -2.3    8.1    8.7
C     0.0  -10.4   -6.2
H     0.3   11.7   -3.2
H    -1.3   -5.3  -10.8
C     0.2    5.8   10.6
H    -4.1    3.3  -11.0
N    -0.7    4.7   11.2
H    -8.9    6.4   -5.4
H    -0.5    9.8    7.3
H   -10.4   -5.6   -3.2
H    -1.6  -11.1   -5.1
C     8.8   -5.3    6.8
I     5.6  -10.2   -4.0
H     8.7   -4.6    7.5
I     1.0   -2.1  -12.1
C     4.5   -2.7   11.2
I     1.0    2.1  -12.2
N   -10.0    4.7   -5.6
I     6.0   10.1   -3.9
H     3.5   -3.0   11.6
H    10.2   -4.3    5.7
C    -9.2    5.8   -6.2
H    -1.2   10.9    6.0
I    -2.6   -0.0  -12.2
I     5.7  -10.2    4.4
I     5.9   10.1    4.4
C    -4.9   -2.7   11.2
H    -0.1    4.1   11.9
I   -12.0   -0.1   -3.7
N     0.9   10.9    6.2
H     5.3    3.3  -11.0
H    -4.6   -1.7   11.6
H     4.7   -1.7   11.6
C     9.5    5.8   -6.2
H    -4.1   -3.4   11.6
H     0.9  -10.8   -6.6
C    -0.5   10.8    6.8
I   -11.9    0.0    4.6
N    -0.8  -11.5   -5.6
H     1.0   -6.1  -11.3
H    -5.8    3.0  -11.0
H   -10.4    4.1   -6.4
H    -1.5    5.1   11.7
H     9.8    6.4   -5.4
H     8.9    6.3   -6.9
H    -3.7   12.1    2.8
N    10.1   -5.2    6.2
H     8.7   -6.3    7.3
H     1.6   10.9    6.9
H    -0.3  -12.1   -4.9
H   -10.9    5.1   -5.1
H     3.7  -12.5   -1.2
H    -4.6   12.2    1.4
H   -12.7   -3.0    1.6
H     5.2   -3.4   11.6
H     0.5    6.5   11.4
I     1.0    2.1   12.9
H    10.3   -6.0    5.5
C    -9.9   -5.3    6.8
H     4.7   12.2    1.4
H     1.0   11.8    5.7
I     1.0   -2.1   13.0
H     8.5  -10.1    1.0
H   -13.1    2.1   -0.7
H     9.0    9.7   -1.0
H   -10.6   -5.2    6.0
H    -5.9   -3.0   11.6
I    -2.6   -0.0   13.1
H   -10.0   -4.6    7.5
H    12.8    2.7   -2.7
H    10.4    5.3   -6.6
I     6.9   -8.1   -8.1
I     7.1    8.1   -8.1
H    12.8   -2.8    3.1
I     3.3  -10.2   -8.1
H     8.6   -4.6   -9.3
H    -9.8    6.3   -6.9
N    -4.1   12.7    2.1
H    13.5    1.3   -0.8
H    -4.4  -12.6   -2.5
P     9.1    0.0  -10.1
H     5.6   12.1    2.8
I     3.5   10.3   -8.2
H    -3.2   13.1    1.6
I   -10.9    2.1   -7.9
H    -0.5    9.8   -9.5
H   -13.4    1.2   -2.1
H    13.4   -1.6    1.9
H    -8.7   10.0   -3.2
H    -7.8   -5.3   -9.9
I   -10.9   -2.1   -8.0
H    13.1    3.6   -1.2
H    -9.6    9.7   -1.0
H    -1.2  -12.1   -6.4
I     7.0   -8.0    8.7
H    -8.6  -10.6    1.0
H     4.9  -12.6   -2.5
I     3.4  -10.1    8.7
H    -5.6  -12.5   -1.2
H    -8.3   10.9   -1.0
P    -4.6    8.0  -10.3
I     7.1    8.1    8.7
H    -9.3   -9.7    3.2
P     4.7    8.0  -10.3
