         400
 sphere cut out from bulk 
P    -0.5    0.7   -0.0
I     2.2   -0.8    1.0
I    -0.5   -1.2   -2.6
I    -2.3   -1.4    1.7
I     1.3    2.9   -1.4
I    -0.8    2.6    2.6
H     3.5   -1.1   -1.1
H    -0.5   -3.8   -0.8
I    -3.2    2.0   -1.2
H    -0.4   -1.2    3.8
H     2.7   -0.1   -3.2
H    -0.3    0.3    4.4
H    -4.1   -0.2   -1.8
N    -0.1   -0.7    4.6
H     2.5    2.7    2.9
H     2.7   -1.9   -3.3
N     4.1   -1.1   -1.9
H    -0.6    1.3   -4.5
H     4.1    1.2    1.9
C     3.4   -1.0   -3.2
H    -0.5    2.9   -3.8
H    -3.5    2.0    2.7
C    -0.3   -4.8   -0.5
H    -0.8   -4.6    1.5
H     0.9   -0.8    4.7
H    -4.1   -1.9   -1.9
H    -1.0    4.8    1.0
H     0.8   -5.0   -0.3
H     4.7   -0.2   -1.8
N    -4.7   -1.1   -1.9
H    -4.7    1.2    1.9
C    -0.8    2.3   -4.7
N    -1.1   -5.2    0.7
C     3.5    3.0    2.9
H     4.8   -1.9   -1.9
H    -2.1   -5.0    0.6
N     4.4    1.8    2.8
P     3.9   -3.0    2.6
N    -4.5    1.8    2.8
H    -5.3   -1.1   -1.1
H     3.8    3.6    2.0
H     4.2    1.2    3.6
H    -0.6   -5.5   -1.3
H    -0.7    5.5   -1.3
H    -1.9    2.4   -4.9
H     4.1   -1.0   -4.0
I     1.2   -4.4    3.6
N    -1.1    5.8    0.7
C    -0.9   -1.2    5.8
H    -4.6    1.2    3.6
H    -1.9   -1.0    5.6
P    -0.6   -3.1   -5.2
H     0.7    6.0   -0.3
I     5.7    2.0   -1.2
C    -0.4    6.2   -0.5
H    -0.9   -6.2    1.0
P     3.8    4.3   -2.6
I     4.2   -4.8   -0.0
H    -4.8   -1.0   -4.0
I     3.6   -1.0    5.2
H    -2.1    6.0    0.6
H     5.4    2.0    2.7
H     1.0    2.6   -5.7
P    -5.0   -3.0    2.6
H    -0.7   -2.2    6.0
H     3.8    3.5    3.8
C    -5.5   -1.0   -3.2
N    -0.0    2.8   -5.9
I     2.0   -4.6   -4.2
H    -5.1    3.6    2.0
H    -0.8    6.4    1.5
I    -4.7   -4.8   -0.0
H    -0.6   -0.6    6.7
C    -5.3    3.0    2.9
I    -6.7   -0.8    1.0
H    -6.1   -0.1   -3.2
I     3.6    2.5   -5.3
I     6.6   -1.4    1.7
P    -0.7    4.5    5.3
I    -2.4   -5.3   -3.8
I     1.3   -1.0   -6.9
H    -0.3    2.2   -6.7
P    -5.0    4.3   -2.6
H    -0.2    3.8   -6.1
I    -3.1   -1.6   -6.3
H    -6.1   -1.9   -3.3
I     1.9    2.9    6.3
H    -5.1    3.5    3.8
H    -0.6    7.2   -0.8
I    -2.4    5.7   -3.8
I    -3.2   -5.0    4.2
I    -2.5    2.2    6.6
I    -5.3   -1.0    5.2
I     4.1    6.2   -0.0
H    -6.4    2.7    2.9
I     1.1    6.5    3.6
I    -4.7    6.2   -0.0
I    -5.2    2.5   -5.3
I     2.0    6.4   -4.2
I    -3.3    6.0    4.2
P     3.9   -6.7   -2.6
I    -7.6    2.9   -1.4
I     1.3   -8.1   -1.4
P     8.4    0.7   -0.0
P    -0.6   -6.5    5.3
H     6.8   -5.0    0.6
H     3.8   -7.4    2.0
H     2.7   -3.6    7.3
I     5.7   -1.6   -6.3
I     5.7   -5.0    4.2
P    -5.0   -6.7   -2.6
H     3.9   -4.0   -6.7
P     3.8    0.8    7.9
H     4.0   -4.4    6.4
P     3.9    0.5   -7.8
I     8.3   -1.2   -2.6
I    -0.7   -8.4    2.6
H     7.0    2.4   -4.9
I     8.1    2.6    2.6
H     6.9   -1.0    5.6
H    -0.4   -8.1   -3.8
H     6.7    6.0    0.6
H    -0.7   -1.1   -9.0
H     2.6   -8.3    2.9
H    -5.0   -7.4    2.0
I     1.2   -0.6    9.0
C     3.3   -4.5    7.3
I     5.6    6.0    4.2
H     3.9   -7.4    3.8
H     8.3   -3.8   -0.8
C     3.6   -8.0    2.9
I     6.5   -5.3   -3.8
I    -0.6   -4.7    7.9
I    -6.8   -4.6   -4.2
H    -4.9   -4.4    6.4
H    -4.9   -4.0   -6.7
P     3.8    8.0    2.6
P    -4.9    0.5   -7.8
I    -2.2    2.0   -8.8
H    -8.0   -0.8    4.7
H     7.9    4.8    1.0
H     8.4   -1.2    3.8
H     4.3    4.6   -6.9
I    -0.6   -5.0   -7.9
N     7.8   -5.2    0.7
P    -9.4    0.7   -0.0
H     2.6   -4.8   -7.6
I     6.4    5.7   -3.8
H     2.7   -5.4    7.2
H    -0.8    2.0    9.2
H    -0.2   -7.2   -6.1
P    -5.1    0.8    7.9
H     8.1   -4.6    1.5
I     6.3    2.2    6.6
H    -4.6    4.6   -6.9
P    -0.6    7.9   -5.2
H     2.6    5.6    7.2
H     8.3    1.3   -4.5
H    -8.1   -5.0   -0.3
I    -3.1   -9.0   -1.2
I    -7.7   -4.4    3.6
C     8.0    2.3   -4.7
C     3.7   -4.5   -7.6
H     8.3    2.9   -3.8
H     8.6    0.3    4.4
N     7.7    5.8    0.7
H    -5.0   -7.4    3.8
I    -9.4   -1.2   -2.6
P    -5.1    8.0    2.6
C     8.5   -4.8   -0.5
I    -7.0    2.9    6.3
C    -0.8   -8.7   -4.7
N     8.7   -0.7    4.6
H    -0.8   -2.7   -9.5
H     8.2    5.5   -1.3
C     8.0   -1.2    5.8
I    -0.7    6.0   -7.9
N    -1.0   -1.7   -9.8
H     8.2   -5.5   -1.3
C    -5.3   -8.0    2.9
H    -3.4   -9.0    2.7
I    -3.3   -1.4    9.3
H     3.9    6.5    6.4
I    -2.3    9.6    1.7
H     2.7    9.1   -3.3
H    -1.8   -8.6   -4.9
H    -3.4    5.5   -7.7
H    -3.3   -5.5   -7.7
I     2.3    2.7   -9.4
H    -9.3   -1.2    3.8
H    -7.9    2.6   -5.7
I    -0.6    9.7   -2.6
N     0.0   -8.2   -5.9
H     7.9   -6.2    1.0
N    -9.0   -0.7    4.6
I    -0.7    6.3    7.9
H     2.6    6.2   -7.6
H     3.9   -3.9   -8.5
H    -8.2    6.0   -0.3
H    -9.4   -3.8   -0.8
H    -4.2    9.1   -1.9
H    -9.2    0.3    4.4
H     1.0   -8.4   -5.7
C    -5.6   -4.5    7.3
H    -2.0   -1.6   -9.9
H    -6.2   -3.6    7.3
P     8.3   -3.1   -5.2
C    -5.2   -4.5   -7.6
C     3.2    6.5    7.3
I    -6.9    6.4   -4.2
I    -9.6    2.6    2.6
N    -4.4    5.2   -7.7
H    -4.2   -3.7    8.7
H     4.4   -6.4   -6.9
I    -7.6   -1.0   -6.9
N     4.5    5.2   -7.7
C    -0.4    2.7   10.0
P    -0.4  -10.3   -0.0
H     4.7    9.1   -1.9
C    -9.2   -4.8   -0.5
H     8.2   -2.2    6.0
H    -4.5   -6.4   -6.9
H     8.0    6.4    1.5
I     1.9   -8.1    6.3
H    -0.6    3.7    9.7
H    -4.9    6.5    6.4
H     3.9    7.0   -6.7
H    -0.5    9.8    3.8
H     0.6    2.5   10.2
C     8.5    6.2   -0.5
I     2.1   10.2    1.0
H     3.5    9.9   -1.1
H     4.7   -3.7    8.7
N     4.1   -4.6    8.5
H    -9.4    2.9   -3.8
H    -9.4    1.3   -4.5
N    -4.3   -5.8   -7.7
N    -4.4   -9.2    2.8
H    -5.0   -3.9   -8.5
N     4.4   -9.2    2.8
H     4.2    4.7   -8.5
I    10.1    2.9   -1.4
N     4.5   -5.8   -7.7
H     8.3   -0.6    6.7
C     3.6    6.5   -7.6
H    -0.7    8.8    6.0
I     5.7   -9.0   -1.2
P     8.2    4.5    5.3
I     3.7   -8.5   -5.3
H     2.6    7.4    7.3
I    -7.7    6.5    3.6
H    -0.5   -9.7   -4.5
H    -9.6   -4.6    1.5
H    -4.6    4.7   -8.5
H    -6.3   -8.3    2.9
N    -4.8   -4.6    8.5
H     4.2   -9.8    1.9
P    -0.6   -2.8   10.4
H     9.6   -5.0   -0.3
H     5.5   -9.0    2.7
N     4.1    9.9   -1.9
H     9.8   -0.8    4.7
H    -5.0    7.0   -6.7
H    -6.2   -5.4    7.2
H     5.5    5.5   -7.7
H     0.8   -1.5  -10.8
N     8.8    2.8   -5.9
H    -6.2   -4.8   -7.6
H    -4.2   -5.4    8.6
C     3.3   10.0   -3.2
I     5.6   -1.4    9.3
C    -9.7    2.3   -4.7
H     3.4   -4.6    9.4
H    -9.8    4.8    1.0
H     5.5   -5.5   -7.7
H    -4.7   -9.8    1.9
H     8.3    7.2   -0.8
N    -8.9    2.8   -5.9
H    -0.3   -8.7   -6.7
H    -9.5   -5.5   -1.3
H    -6.3    5.6    7.2
H     8.5    2.2   -6.7
H    -4.2    5.6    8.6
C    -0.2   -1.4  -11.0
C    -9.2    6.2   -0.5
H    -9.6    5.5   -1.3
I    11.0   -0.8    1.0
N    -4.8    9.9   -1.9
H     4.7   -5.4    8.6
I    -7.5   -8.1   -1.4
P    -9.4   -3.1   -5.2
I     6.6    2.0   -8.8
H     8.6    3.8   -6.1
N    -9.9   -5.2    0.7
H     4.6    5.6    8.6
H     0.8   10.2    4.7
H    -0.4   -0.3  -11.3
C    -5.6    6.5    7.3
I    -2.5   -8.8    6.6
N    -0.2   10.3    4.6
H     9.6    6.0   -0.3
C    -5.2    6.5   -7.6
I    -5.2   -8.5   -5.3
H    -5.4    9.9   -1.1
P    -0.4    4.1  -10.5
H     4.3   -9.8    3.6
I   -11.1   -1.4    1.7
C    -9.7   -1.2    5.8
I     4.3   -1.3  -10.5
H    -4.6   -9.8    3.6
N     4.0    6.4    8.5
H    -9.5   -2.2    6.0
H    -6.2    9.1   -3.3
H     4.3   -6.3   -8.5
C    -0.9    9.8    5.8
H     4.0   10.0   -4.0
N    -1.2    2.3   11.2
I    -4.6   -1.3  -10.5
I    10.0   -4.4    3.6
H    -2.2    2.5   11.1
H    -9.1    3.8   -6.1
I     4.0    2.8   10.5
H    -0.2  -10.7    4.4
H    -9.4   -0.6    6.7
H    -4.6   -6.3   -8.5
N   -10.0    5.8    0.7
H    -9.8   -6.2    1.0
H    -1.0    1.4   11.5
H    -2.0   10.0    5.6
H    -9.2    2.2   -6.7
H     2.7   10.9   -3.2
H    -6.3    6.2   -7.6
P    -0.6   11.6   -0.0
H    -4.2   10.7   -1.8
H     9.8    2.6   -5.7
H    -9.7    6.4    1.5
I     6.5    9.6    1.7
H     3.8    7.1   -8.5
N    -4.8    6.4    8.5
P     8.2   -6.5    5.3
H    -5.4   -4.6    9.4
I    -3.2    9.4   -6.3
I     3.5   10.0    5.2
P    -9.6    4.5    5.3
H    -4.9   10.0   -4.0
C    -5.6   10.0   -3.2
I    -6.6    2.7   -9.4
H     3.4    6.4    9.4
I    -4.8    2.8   10.5
H     4.7   10.7   -1.8
I    -7.7   -0.6    9.0
H    -9.4    7.2   -0.8
H     2.8  -11.1   -3.2
H    -0.6   -2.0  -11.8
I     8.1   -8.4    2.6
I     2.2  -11.7    1.0
H    11.4    2.7    2.9
H    11.6   -0.1   -3.2
H   -10.7    2.4   -4.9
H   -10.9   -5.0    0.6
H    -4.1  -11.2   -1.8
H    -4.3    7.3    8.7
H     7.0   -8.6   -4.9
H    -0.6   -7.3    9.7
H    -6.2    7.4    7.3
H     6.8   -1.6   -9.9
H    -0.4   11.3    4.4
H    -5.0    7.1   -8.5
H     8.2   -1.1   -9.0
H    11.6   -1.9   -3.3
I     1.2   10.0   -6.9
H   -10.8   -1.0    5.6
H     4.6    7.3    8.7
H     8.4   -8.1   -3.8
I   -12.1    2.0   -1.2
I    10.1   -1.0   -6.9
I    -6.7   10.2    1.0
H     4.8  -11.2   -1.8
H     3.6    2.3  -11.6
I    -6.9   -8.1    6.3
I     8.2   -4.7    7.9
H     8.1    2.0    9.2
H    -0.9    2.9   12.0
H    -0.6   10.4    6.7
I     8.2   -5.0   -7.9
I     2.1   -4.2   11.5
I    10.0    6.5    3.6
I    -5.3   10.0    5.2
H    12.4   -1.1   -1.1
I    -0.5  -12.2   -2.6
I    10.9   -4.6   -4.2
H   -11.0    6.0    0.6
P     8.2    7.9   -5.2
N    -0.1  -11.7    4.6
P    -0.4   -6.9  -10.5
H    -5.5    6.4    9.4
H    -0.9    8.3   -9.5
N     7.9   -1.7   -9.8
I     5.7    9.4   -6.3
C    12.2   -1.0   -3.2
