         400
 sphere cut out from bulk 
P    -0.1   -0.6    0.0
I     2.4    1.4    0.5
I    -2.0    2.0    0.5
I    -0.1   -0.1   -3.1
I    -0.2   -1.0    3.1
I     1.8   -3.1   -0.4
H    -0.5    2.8    2.3
I    -2.7   -2.5   -0.5
H     3.1   -0.3   -2.2
H     0.9    2.4    3.1
H    -1.1    3.3   -2.2
H    -3.5   -0.8   -2.3
H     0.4    2.9   -3.1
H    -3.5   -1.3    2.2
N     0.0    3.0    3.1
H     0.3   -3.9   -2.3
H     4.0    0.6    2.3
C    -0.5    3.5   -3.1
C     3.6   -0.7   -3.1
H    -1.1   -3.5   -3.1
H    -3.6    1.0    3.1
H    -0.5    2.8    4.0
H     3.5   -1.8   -3.1
H    -3.9    0.7   -3.1
H     1.0   -4.4    2.2
H    -0.5   -4.0    3.1
N    -4.0   -0.4   -3.1
H     3.1   -0.3   -4.0
N    -0.2   -4.1   -3.1
H     1.1    4.6    2.2
C    -4.1   -1.1    3.1
H    -1.1    3.3   -4.0
H     4.0   -1.6    3.1
H    -3.5   -0.8   -4.0
N    -4.5    0.4    3.1
C     0.5    4.5    3.1
H    -3.5   -1.3    4.0
N     4.6    0.4    3.1
H    -5.0    0.6    2.3
H     0.3   -3.9   -4.0
C     0.4   -4.6    3.1
H     4.0    0.6    4.0
H     0.4    5.2   -2.3
N    -0.2    4.9   -3.1
C     4.9   -1.1    3.1
N     5.0   -0.4   -3.1
P     4.4    4.0   -0.0
H    -0.4    5.1    3.1
H     5.5   -0.8   -2.3
H     5.1    0.7   -3.1
H     1.0   -4.4    4.0
H     5.5   -1.3    2.2
P    -4.6    4.0   -0.0
H    -5.0   -1.6    3.1
I     1.9    5.9   -0.4
H     1.1    4.6    4.0
P    -0.1   -0.6    6.3
H    -1.2   -5.8   -2.2
H    -5.9   -0.3   -2.2
C    -5.4   -0.7   -3.1
P    -0.1   -0.6   -6.3
I    -4.4    3.3   -3.1
H     5.4    1.0    3.1
C    -0.6   -5.6   -3.1
H    -1.1    5.5   -3.1
H    -5.0    0.6    4.0
I     4.6    3.3   -3.1
I     2.4    1.4    5.8
I    -2.0    2.0    5.8
H     0.4    5.2   -4.0
H    -5.5   -1.8   -3.1
H    -0.6   -6.2    2.3
P     4.4   -5.1   -0.0
I    -6.6    1.4    0.5
N     0.0   -6.0    3.1
H     5.5   -0.8   -4.0
I    -2.7   -2.5   -5.8
I     6.3   -2.5   -0.5
P    -4.6   -5.1   -0.0
I     1.8   -3.1   -5.8
H     0.4   -6.1   -3.1
I     4.3    4.4    3.1
H     5.5   -1.3    4.0
I     4.3   -4.6    3.1
I    -2.6    6.6   -0.5
H    -1.2   -5.8   -4.0
H    -5.9   -0.3   -4.0
I    -4.7    4.4    3.1
I     7.0    2.0    0.5
I     2.4    1.4   -6.7
I    -2.0    2.0   -6.7
I    -4.7   -4.6    3.1
I    -2.1   -7.1    0.5
H     0.8   -6.6    3.1
H    -0.6   -6.2    4.0
I     1.8   -3.1    6.7
I    -2.7   -2.5    6.8
I    -7.2   -3.1   -0.4
I    -4.5   -5.8   -3.1
I     4.6   -5.8   -3.1
I     2.4   -7.7    0.5
P    -0.0    8.5    0.0
I     1.9    5.9   -5.8
P     4.4    4.0   -6.2
I    -0.2    8.0    3.1
H     3.5    7.3   -3.1
P     4.4    4.0    6.3
P    -4.6    4.0   -6.2
P    -4.6    4.0    6.3
H    -3.5    7.8    2.2
H     7.9    3.3   -2.2
I    -6.6    1.4    5.8
I     6.3   -2.5   -5.8
P     8.9   -0.6    0.0
H     4.0    7.4    3.1
H    -0.5    2.8   -8.6
H    -8.1    2.4    3.1
H     3.1   -0.3    8.5
P    -9.1   -0.6    0.0
I    -2.6    6.6   -5.8
I     1.9    5.9    6.7
P     4.4   -5.1   -6.2
I     6.4    6.6   -0.5
H    -1.1    3.3    8.5
P     4.4   -5.1    6.3
H     7.9   -3.5   -3.1
H     8.5    2.8    2.3
P    -4.6   -5.1   -6.2
H    -3.5    8.3   -2.3
I    -7.2    5.9   -0.4
I     7.0    2.0    5.8
H    -3.5   -1.3   -8.5
H    -3.5   -0.8    8.6
P    -4.6   -5.1    6.3
I     8.8   -1.0    3.1
I    -2.1   -7.1    5.8
H    -3.6   -8.1    3.1
H    -8.0   -4.4    2.2
H     0.3   -3.9    8.6
I    -0.1   -0.1    9.4
H    -3.5    7.8    4.0
H     7.9    3.3   -4.0
I    -0.2   -1.0   -9.4
I     8.9   -0.1   -3.1
H    -8.0    4.6    2.2
I    -0.0    9.0   -3.1
H    -5.0    7.4    3.1
H     4.0    0.6   -8.6
C    -4.1    8.0    3.1
I    -6.6    1.4   -6.7
H     3.1    8.8   -2.2
H     4.0   -8.4    2.3
I    -9.1   -0.1   -3.1
C     3.6    8.3   -3.1
I     6.3   -2.5    6.8
P    -0.1   -9.6    0.0
H    -8.6    2.9   -3.1
H    -5.5    7.3   -3.1
H     1.0   -4.4   -8.5
I    -0.1   -9.2   -3.1
C     8.5    3.5   -3.1
H     0.9    2.4   -9.4
H     1.1    4.6   -8.5
H    -3.9   -8.4   -3.1
I    -7.2   -3.1   -5.8
H    -8.7   -3.9   -2.3
H     8.5    2.8    4.0
I    -2.6    6.6    6.8
H     5.5    7.8    2.2
I    -9.3   -1.0    3.1
H    -3.5    8.3   -4.0
H     0.4    2.9    9.4
I     7.0    2.0   -6.7
N     0.0    3.0   -9.4
I     6.9   -7.1    0.5
I     2.4   -7.7    5.8
C     4.9    8.0    3.1
H     8.5   -4.0    3.1
H    -5.0    0.6   -8.6
I    -2.1   -7.1   -6.7
N    -9.0    3.0    3.1
H    -8.0   -4.4    4.0
H     7.9   -5.8   -2.2
H     0.4    5.2    8.6
N    -4.0    8.7   -3.1
C    -0.5    3.5    9.4
H    -8.0    4.6    4.0
N     9.1    3.0    3.1
H    -5.1   -8.4    2.3
H     3.1   -9.4   -2.2
C     3.6   -0.7    9.4
H     4.0   -8.4    4.0
H    -1.1   -3.5    9.4
I    -6.6   -7.7    0.5
H    -3.6    1.0   -9.4
C    -8.6    4.5    3.1
H     3.1    8.8   -4.0
H     8.0    5.5   -3.1
N     8.8   -4.1   -3.1
H     5.4   -8.1    3.1
H     3.5   -1.8    9.4
H    -9.5    2.8    2.3
H     5.5   -0.8    8.6
H     5.5    8.3   -2.3
H    -3.9    0.7    9.4
H     5.5   -1.3   -8.5
C    -8.6   -4.6    3.1
H    -0.5   -4.0   -9.4
N    -4.0   -0.4    9.4
N    -4.5   -8.7    3.1
N     4.5   -8.7    3.1
N    -0.2   -4.1    9.4
H     5.1   -8.4   -3.1
H    -8.7   -3.9   -4.0
I    -7.2   -3.1    6.7
C    -4.1   -1.1   -9.4
H    -8.7    5.2   -2.3
H     9.4    2.9   -3.1
H     4.0   -1.6   -9.4
H    -1.2   -5.8    8.5
H    -5.9   -0.3    8.5
H     5.5    7.8    4.0
H     9.3   -3.9   -2.3
C    -5.4    8.3   -3.1
N    -4.5    0.4   -9.4
C     0.5    4.5   -9.4
H     8.6    5.1    3.1
N     4.6    0.4   -9.4
C     0.4   -4.6   -9.4
I     2.4   -7.7   -6.7
N     5.0    8.7   -3.1
P    -0.0    8.5    6.3
I    -0.3  -10.1    3.1
H     7.9   -5.8   -4.0
N     8.8    4.9   -3.1
P    -0.0    8.5   -6.3
C     8.4   -5.6   -3.1
H    -5.1   -8.4    4.0
N    -9.3   -4.1   -3.1
H    -0.6   -6.2   -8.6
N    -0.2    4.9    9.4
C    -9.6    3.5   -3.1
H     3.1   -9.4   -4.0
H     9.9    2.4    3.1
H    -0.5    2.8  -10.3
C     4.9   -1.1   -9.4
N     5.0   -0.4    9.4
H    -3.6   -9.8   -2.3
H    -0.4    5.1   -9.4
H    -9.5    2.8    4.0
H     5.5    8.3   -4.0
N    -4.0   -9.4   -3.1
H     5.1    0.7    9.4
H     4.0    9.7    2.3
I     2.5   10.5    0.5
H    -9.5   -4.0    3.1
H     8.5   -6.2    2.3
H    -5.9    8.8   -2.2
H     3.1   -0.3   10.3
H    -5.0   -1.6   -9.4
I     6.4    6.6   -5.8
H    -8.7    5.2   -4.0
C     3.5   -9.8   -3.1
H     9.3   -3.9   -4.0
H   -10.1    3.3   -2.2
H    -1.1    3.3   10.3
H    -3.5   -0.8   10.3
N    -4.4    9.5    3.1
C    -5.4   -0.7    9.4
I    -4.4    3.3    9.4
H     5.4    1.0   -9.4
N    -9.2    4.9   -3.1
P     8.9   -0.6    6.3
H    -3.9    9.7   -3.1
C     9.5    4.5    3.1
P     8.9   -0.6   -6.3
H     9.4    5.2   -2.3
C    -0.6   -5.6    9.4
C     9.4   -4.6    3.1
H    -1.1    5.5    9.4
N     4.6    9.5    3.1
I    -7.2    5.9   -5.8
H    -3.5   -1.3  -10.3
H     0.3   -3.9   10.3
I     4.6    3.3    9.4
H    -8.2   -6.6    3.1
H     4.0    0.6  -10.3
P    -9.1   -0.6    6.3
H    -8.6   -6.1   -3.1
H    -5.5   -1.8    9.4
P    -9.1   -0.6   -6.3
H    -3.6   10.0    3.1
N     5.0   -9.4   -3.1
H    -5.0    9.7    2.3
H    -3.5  -10.3    2.2
H   -10.1   -3.5   -3.1
H    -9.5    5.1    3.1
N     0.0   -6.0   -9.4
H    -3.6   -9.8   -4.0
H    10.0   -4.4    2.2
H     4.0    9.7    4.0
H     8.5   -6.2    4.0
H     0.4   -6.1    9.4
I   -11.1    2.0    0.5
I    -2.0   11.1    0.5
H     1.0   -4.4  -10.3
I     4.3    4.4   -9.4
N    -9.0   -6.0    3.1
H    -5.9    8.8   -4.0
I    10.8   -3.1   -0.4
N     9.0   -6.0    3.1
H    -5.9   -9.4   -2.2
H    10.1    4.6    2.2
I     4.3   -4.6   -9.4
C    -4.1  -10.1    3.1
H     1.1    4.6  -10.3
H   -10.1    3.3   -4.0
I     6.4    6.6    6.8
I    -4.7    4.4   -9.4
H     9.4    5.2   -4.0
H    -5.0    0.6  -10.3
H     5.2    9.7   -3.1
I    -7.2    5.9    6.7
H     5.4   -9.8   -2.3
P    -0.1   -9.6    6.3
I     6.9   -7.1    5.8
H     0.4    5.2   10.3
P    -0.1   -9.6   -6.3
I    -4.7   -4.6   -9.4
C    -9.6   -5.6   -3.1
I    11.5    1.4    0.5
H     0.8   -6.6   -9.4
H    -5.0    9.7    4.0
C    -5.5   -9.8   -3.1
H    -3.5  -10.3    4.0
H     9.4   -6.1   -3.1
H     5.5   -0.8   10.3
C     4.9  -10.1    3.1
H    -9.6   -6.2    2.3
I    -6.6   -7.7    5.8
H    10.0   -4.4    4.0
H     5.5   -1.3  -10.3
H    -5.9   -9.4   -4.0
H    10.1    4.6    4.0
H     4.0  -10.7    3.1
H     3.4  -10.9   -3.1
H     5.4   10.0    3.1
I    -2.7  -11.6   -0.5
H    -1.2   -5.8   10.3
H    -5.9   -0.3   10.3
H     5.5  -10.3    2.2
H   -10.1    5.5   -3.1
H   -10.2   -5.8   -2.2
I    -4.5   -5.8    9.4
H     5.4   -9.8   -4.0
H     0.9   11.5    3.1
I     4.6   -5.8    9.4
I   -11.7   -2.5   -0.5
I     6.9   -7.1   -6.7
H    -0.6   -6.2  -10.3
H    -3.5    7.8   -8.5
H     7.9    3.3    8.5
H    -0.5   11.9    2.3
H    -9.6   -6.2    4.0
I    -6.6   -7.7   -6.7
I     2.5   10.5    5.8
H    -5.1  -10.7    3.1
H     9.9   -6.6    3.1
I     8.8    8.0    3.1
I     1.8  -12.2   -0.4
I    -6.5   10.5    0.5
H    12.1   -0.3   -2.2
P     9.0    8.5    0.0
H     5.5  -10.3    4.0
H   -10.2   -5.8   -4.0
I    -0.2    8.0   -9.4
H     0.4   12.0   -3.1
H     8.5    2.8   -8.6
I    10.9    5.9   -0.4
H     3.5    7.3    9.4
I     2.4    1.4  -12.1
P    -9.1    8.5    0.0
H    -3.5    8.3    8.6
I    -2.0    2.0  -12.1
H    -8.0   -4.4   -8.5
N     0.1   12.1    3.1
H    -0.5   11.9    4.0
P    -0.1   -0.6  -12.5
H    -8.0    4.6   -8.5
H    -1.1   12.3   -2.2
I    -2.7   -2.5   12.1
P    -0.1   -0.6   12.6
H    -5.6  -10.9   -3.1
H     3.1    8.8    8.5
I    -9.2    8.0    3.1
H     4.0    7.4   -9.4
I     1.8   -3.1   12.1
H     4.0   -8.4   -8.6
I   -11.1    2.0    5.8
I    -2.0   11.1    5.8
