         400
 sphere cut out from bulk 
P     0.1    0.0    0.3
I    -2.5   -0.4   -1.6
I     2.1   -0.4   -2.1
I     0.0    3.2   -0.4
I     0.2   -3.1    0.9
I    -1.8    0.6    2.8
I     2.8    0.5    2.1
H    -3.1    2.4    0.1
H     3.8   -1.6    0.7
H    -0.9   -3.1   -2.7
H     0.3   -2.0   -3.7
H    -3.9   -1.9    0.0
H    -0.6    3.1   -2.9
H     3.6    2.4    0.5
C    -0.6   -2.8   -3.7
H     1.4    2.2   -3.9
H     1.1    3.2    3.3
H    -0.4   -3.5    3.3
C    -3.6    3.3    0.5
H     3.6   -3.2   -1.1
H     3.1   -3.9    0.4
H    -1.0    2.3   -4.4
H    -0.9    2.4    4.4
H    -1.4   -2.3   -4.3
H    -0.2   -1.6    4.8
N    -0.5    3.1   -4.0
H    -3.6    3.3    1.6
N     4.5   -2.3    0.6
N    -4.6   -2.3    0.6
H     4.0    3.2   -0.9
N     4.1    3.2    0.1
H    -3.2    4.2    0.1
H    -4.3   -2.5    1.5
C     4.0   -3.5   -0.1
C     0.9    3.1   -4.3
H     3.6    4.1    0.5
C     1.0    3.2    4.4
H     1.5    2.4    4.8
H     5.3   -1.9    0.0
N    -0.7   -3.6    4.3
H    -5.4   -1.6    0.7
H     4.8   -2.5    1.5
H    -1.7   -3.4    4.3
N    -0.5    3.2    4.7
C     0.0   -2.6    5.1
H     1.4    4.0   -3.9
H     1.1   -2.8    5.1
H     0.7   -4.4   -3.9
N    -0.1   -4.0   -4.4
H    -1.0    4.0   -4.4
N    -5.1    3.2    0.1
H    -0.9    4.1    4.3
H    -5.5    2.4    0.5
H    -4.4   -4.2   -0.2
P    -4.5   -0.0   -4.1
H    -5.2    3.2   -0.9
P     4.6   -0.0   -4.1
I    -1.9    0.5   -5.9
C    -5.2   -3.5   -0.1
P     0.0   -6.3    0.2
H     1.0    3.1   -5.4
H     4.8   -4.2   -0.2
P     0.1    6.4    0.2
C     5.5    3.3    0.5
H    -0.5   -4.6    4.6
H     6.0    2.4    0.1
H     1.4    4.2    4.8
P    -4.4    0.1    4.7
H    -5.5   -3.2   -1.1
I    -4.6    3.2   -3.5
H     0.2   -3.7   -5.4
H    -0.8   -4.7   -4.5
I     4.6    3.2   -3.5
I    -4.2   -3.0    4.0
I    -2.5   -5.9   -1.7
I     2.0   -5.9   -2.3
H    -0.5    3.2    5.8
P     4.7    0.1    4.7
H     5.6    3.3    1.6
I    -6.4    0.5    2.1
H    -0.3   -2.8    6.2
I    -1.8    5.9    2.8
I     6.6   -0.4   -1.6
I     2.7    5.9    2.0
H    -5.5    4.1    0.5
I     2.2   -0.2    6.6
I     4.9   -3.0    4.0
I     2.7    0.5   -6.6
H    -6.0   -3.9    0.4
I    -4.3   -3.2   -4.8
H     6.0    4.2    0.1
I    -7.0   -0.4   -2.1
I    -2.4    6.8   -1.7
I     2.1    6.8   -2.3
I     2.7   -6.7    2.0
I     4.8   -3.2   -4.8
I    -1.9   -6.8    2.8
I    -2.4   -0.3    7.2
I    -4.5    3.3    5.3
I     4.6    3.3    5.3
I     7.3    0.6    2.8
P     0.1   -0.0   -8.4
I     0.1   -3.2   -7.9
I    -1.8    5.8   -6.0
H    -3.6    3.1   -7.1
P    -4.5    6.3   -4.2
I     2.0   -5.7    6.4
P    -4.6   -6.3   -4.2
P     4.6   -6.3   -4.2
P     4.7    6.3   -4.2
H    -3.8   -3.2   -7.4
I    -6.4    5.9    2.0
I     0.0    3.3    8.3
P     4.6   -6.2    4.6
H    -7.8    2.2   -3.9
P    -4.6   -6.2    4.6
H     3.7   -3.0    7.6
I     6.6   -5.9   -1.7
P     0.2    0.2    9.1
P    -9.1    0.0    0.3
H    -3.2   -8.5    0.1
P    -4.5    6.5    4.6
H     0.8    8.2   -3.9
H     7.8   -2.3   -4.3
P     4.6    6.5    4.6
H    -0.8    8.0   -4.5
H     3.6    2.3   -8.2
H     8.3   -3.1   -2.7
H     7.4   -3.4    4.3
P     9.2    0.0    0.3
I    -1.9   -6.8   -6.0
I    -6.5    0.5   -6.6
I     2.7    5.8   -6.7
H     3.5   -8.6    0.5
H    -0.5    8.1    4.6
H     3.3   -2.3   -8.4
H    -8.1    3.2    3.3
H     3.2    8.8    0.4
H    -7.7    2.4    4.8
I     7.3    0.5   -5.9
H     4.0    3.3    7.9
H    -3.2    2.2   -8.6
H    -4.3    8.4   -0.2
I    -0.0   -9.5   -0.4
I    -2.5   -5.7    7.1
C    -3.6    3.1   -8.2
I    -7.1   -5.9   -2.3
H     8.2    2.3   -4.4
I    -9.0   -3.1    0.9
H    -3.4   -2.1    8.7
H     8.5    3.1   -2.9
I    -6.5   -6.7    2.0
H     5.6    3.1   -7.1
I     0.2    9.5    0.9
H    -7.8    4.0   -3.9
H     1.3   -8.6   -3.9
I    -6.9   -0.2    6.6
H     8.2    2.4    4.4
H     5.3   -3.2   -7.4
I     2.0    6.9    6.4
I    -9.1    3.2   -0.4
H    -1.0   -8.6    4.3
I     6.7    6.8   -1.7
H     4.8    8.4   -0.2
I    -0.0    3.1   -9.2
H    -3.1    2.4    8.9
I     9.2    3.2   -0.4
N    -0.0    8.7   -4.4
C     8.6   -2.8   -3.7
H    -0.3    9.2    3.3
H    -3.5   -2.4   -8.8
H     3.6    3.9   -8.2
H    -1.0   -8.7   -4.4
C    -8.2    3.1   -4.3
C    -8.2    3.2    4.4
I     7.3    5.9    2.8
H    -5.4   -3.0    7.6
H     1.4   -8.5    4.8
H    -8.9   -2.0   -3.7
N    -3.9   -3.2   -8.4
I     6.7   -0.3    7.2
I     9.3   -3.1    0.9
H     3.3   -4.1   -8.4
H    -8.1   -2.8    5.1
I     2.7   -6.8   -6.7
H    -5.1    3.3    7.9
H     3.4   -2.1    9.1
H     8.7   -3.5    3.3
H    -7.7    4.2    4.8
C     3.8   -3.0    8.7
H    -0.7   -9.5   -2.9
C     4.0    9.1   -0.1
H    -0.8    9.6   -2.7
N     4.1    3.1   -8.6
H     1.0   -9.4    3.3
N     8.7    3.1   -4.0
H    -3.2    4.0   -8.6
N    -0.6    9.1    4.3
H    -3.4   -3.8    8.7
I    -7.1    6.8   -2.3
I     0.2   -3.0    9.6
H     8.2    4.0   -4.4
C    -3.7   -9.4    0.5
C     3.8   -3.2   -8.8
N     8.5   -3.6    4.3
H     8.2    4.1    4.3
H    -5.5    2.3   -8.2
H    -3.6   -9.4    1.6
H     3.7    9.4   -1.1
N     4.0   -9.4    0.1
H    -5.6   -8.6    0.5
H    -8.1    3.1   -5.4
H     3.9   -9.4   -0.9
I    -2.5    7.0    7.1
H    -3.1    4.2    8.9
H     9.0   -1.6    4.8
I     7.3   -6.8    2.8
H     9.4   -2.0   -3.7
H    -3.5   -4.0   -8.8
N    -3.9   -3.0    9.1
H     3.7    2.5    9.3
H    -8.5   -4.4   -3.9
N    -0.6   -9.5   -4.0
H    -1.7    9.3    4.3
H     5.9   -8.5    0.1
N     4.1    3.3    8.9
C     5.5    3.1   -8.2
C     0.9   -9.4    4.4
N     5.2   -3.2   -8.4
N     8.7    3.2    4.7
H     0.3    8.9   -5.4
N    -5.1    3.1   -8.6
C    -5.1    9.1   -0.1
H    -5.9   -2.3   -8.4
C    -3.6    3.3    9.3
H     3.4   -3.9    9.1
C     0.9   -9.5   -4.3
H     8.3   -4.7   -4.5
N    -0.5   -9.4    4.7
C    -0.5    9.9   -3.7
H    -6.0    8.8    0.4
H     5.7   -2.1    8.7
P     0.1    6.3   -8.6
I    -2.5   -0.5  -10.3
H    -9.3   -1.6    4.8
C    -5.3   -3.0    8.7
H    -5.6    3.9   -8.2
H    -9.8    3.1   -2.9
H    -9.6   -3.5    3.3
P     0.0   -6.4   -8.6
H     6.0    2.2   -8.6
N    -5.1   -9.4    0.1
N    -5.0    3.3    8.9
H     8.6   -4.6    4.6
C    -9.7   -2.8   -3.7
H     5.7   -2.4   -8.8
H    -3.2  -10.3    0.1
C    -5.4   -3.2   -8.8
C    -9.1   -2.6    5.1
H     3.7    4.2    9.3
H    -5.2   -9.4   -0.9
H   -10.0   -3.1   -2.7
N     9.1   -4.0   -4.4
C     9.2   -2.6    5.1
P     0.1   -6.2    8.9
H     8.6    3.2    5.8
H     3.6  -10.3    0.5
H     4.0    3.1   -9.6
C     5.5   -9.4    0.5
N     5.3   -3.0    9.1
N    -9.7    3.1   -4.0
I    -6.4    5.8   -6.7
H    -5.4    9.4   -1.1
H     5.5   -9.4    1.6
N    -9.2   -4.0   -4.4
H    -5.8   -4.1   -8.4
H     6.0    2.4    8.9
H    -5.8   -2.1    9.1
H     0.9   -9.5   -5.4
P     0.2    6.5    8.9
H     3.7   -3.2   -9.9
I     4.5   -9.5   -3.5
H    -4.2   10.1    1.5
H    -0.6   -9.4    5.8
P    -9.1   -6.3    0.2
H    -8.9   -3.7   -5.4
H     5.7   -3.8    8.7
P    -9.1    6.4    0.2
H    -5.5    2.5    9.3
I    -4.6   -9.5   -3.5
H     1.2    9.8    5.1
I     2.2   -0.4  -10.9
P     9.2   -6.3    0.2
I     7.4    5.8   -6.0
H     8.9   -2.8    6.2
I    -7.2   -5.7    6.4
N    -9.6    3.2    4.7
H    -3.8   -3.0   10.1
H    10.2    3.2    3.3
H    -1.0  -10.3    4.4
I    -4.2    9.6    4.0
H     1.3  -10.4   -3.9
H   -10.1    2.4    4.4
H     0.3   10.6   -3.7
P     9.2    6.4    0.2
H    -1.3   10.3   -4.3
H     6.0    4.0   -8.6
H     5.7   -4.0   -8.8
I     6.6   -5.7    7.1
C     0.1   10.0    5.1
H   -10.1    2.3   -4.4
I     2.7    0.7   10.9
H    -1.0  -10.4   -4.4
N    -4.6   10.3    0.6
C     5.6    3.3    9.3
N    -9.9   -3.6    4.3
H     4.9   10.1    1.5
N     4.6   10.3    0.6
H    -5.2    3.1   -9.6
I   -11.0    0.6    2.8
C    10.1    3.1   -4.3
H    -3.8   10.8    0.0
H     1.4  -10.3    4.8
H     9.4   -3.7   -5.4
I    -4.3    9.5   -4.8
H    -3.5    3.3   10.4
H    10.6    2.2   -3.9
H     9.9   -4.4   -3.9
H    -5.8   -3.9    9.1
I    11.3   -0.4   -2.1
C    10.1    3.2    4.4
H     6.0    4.2    8.9
I     5.0    9.6    4.0
H    -5.5    4.2    9.3
I    -6.5   -6.8   -6.7
I     7.3   -6.8   -6.0
H   -10.6   -2.3   -4.3
H    -9.7   -4.6    4.6
H    -9.5   -2.8    6.2
H    -0.2    9.9    6.2
I     4.6   -9.3    5.3
I    -4.6   -9.3    5.3
H    -5.6  -10.3    0.5
I     4.9    9.5   -4.8
H   -10.1    4.1    4.3
H    -0.4   -3.0  -11.3
I    -1.8    0.7   11.6
H   -10.1    4.0   -4.4
H    -5.5   -3.2   -9.9
H     3.9   11.1    0.7
H    -9.7    3.2    5.8
H    10.3   -2.8    5.1
I   -11.7   -0.4   -1.6
I    -7.1    6.9    6.4
H     5.4   -3.0   10.1
H     6.0  -10.3    0.1
H    10.6    2.4    4.8
H   -10.0   -4.7   -4.5
H    10.2    3.1   -5.4
H    10.6    4.0   -3.9
I     6.7    7.0    7.1
H     5.4   10.8    0.0
H    -0.1   11.0    4.8
H    -0.6    3.0  -11.7
I    11.9    0.5    2.1
H   -10.9   -3.4    4.3
I    -2.6   -5.9  -10.4
H     5.6    3.3   10.4
I     0.2    9.4   -7.9
H    -5.3   11.1    0.7
H    -7.8   -8.6   -3.9
I     6.7   -0.5  -10.3
H    10.6    4.2    4.8
P    -9.1   -0.0   -8.4
H    -8.4    8.2   -3.9
I    -9.0   -3.2   -7.9
H     3.4    8.5   -8.4
H     8.4    8.0   -4.5
H    -3.6   -9.5   -7.1
H    -7.8   -8.5    4.8
I    -0.0   -9.3    8.3
H     3.5   -8.7   -8.2
H   -12.3    2.4    0.1
P     9.3   -0.0   -8.4
I    -1.9  -12.1    2.8
I   -11.0    0.5   -5.9
H     1.1    3.3   12.1
I    -2.5   12.2   -1.6
H    -3.8    9.5   -7.4
I     2.2   12.2   -2.1
I     2.7  -12.1    2.1
H     0.3   -3.5   12.1
I     9.3   -3.2   -7.9
P     0.0  -12.6    0.3
H     8.1   -8.6    4.3
I    -2.5    6.7  -10.4
H    -3.2   -8.4    8.9
H    -3.2   -8.7   -8.6
H     7.5    9.3    4.3
H     8.1   -8.7   -4.4
