         400
 sphere cut out from bulk 
I    -1.3    1.4    0.1
I     1.8   -1.4    0.3
P    -0.6   -0.9   -2.1
P    -0.6   -0.8    2.2
I    -2.2   -2.8    0.3
H    -1.0    3.5   -1.1
H     3.8    0.9    0.4
H     3.0    2.5    0.3
I     1.3    0.8   -3.8
H     3.1    1.7    2.6
I     1.1    1.1    4.1
C     3.9    1.9    0.7
H     3.3   -2.7   -1.3
N    -0.8    4.4   -1.6
H    -4.2    2.3    0.3
H     0.1    3.6   -3.3
I    -3.2   -0.3   -3.7
H     0.1    4.7   -1.2
N     4.0    2.0    2.2
H    -1.0    3.5    3.3
I     0.1   -3.7   -3.3
I    -3.0   -0.0    4.2
H    -0.8   -5.1   -0.2
H    -4.3    1.4    2.6
C    -0.7    4.2   -3.1
H    -5.2    0.9    0.4
H    -1.6    3.7   -3.4
H    -4.1   -3.1   -1.3
H     4.8    2.3    0.3
I     0.2   -2.9    4.5
H     0.3   -5.1    2.0
H     3.8   -2.6    2.9
H    -1.5    5.1   -1.3
N     4.0   -3.4   -1.7
C    -5.1    1.9    0.7
H     4.7    1.4    2.6
H     0.6    4.2    3.5
H     4.1    3.0    2.5
C    -0.5    4.4    3.5
I     2.0    5.3    0.4
H     3.7   -4.3   -1.2
N    -5.1    2.0    2.2
H    -0.7    5.2    2.7
H     4.9   -3.1   -1.3
N    -0.4   -6.0    0.2
H     4.1   -2.6   -3.6
H     3.0   -4.0   -3.5
H     0.6   -6.1   -0.1
C    -0.4   -5.9    1.7
C     4.0   -3.6   -3.2
H    -1.4   -5.7    2.1
H    -0.4   -1.1   -6.1
H    -4.9    3.0    2.5
H    -0.6    5.2   -3.6
N    -5.0   -3.4   -1.7
H    -3.8   -3.5    3.6
H     2.8   -2.6    5.1
C     4.1   -3.3    3.6
H    -5.2   -2.6    2.9
H    -6.0    2.5    0.3
H    -5.8   -2.7   -1.3
H     3.6   -4.3    3.5
H    -4.9   -2.6   -3.6
P    -0.6   -0.2    6.6
H    -6.0    1.7    2.6
H    -0.3    0.6   -6.7
P     3.9    1.8   -5.3
N     3.8   -2.8    5.0
H    -4.2   -4.2   -3.5
H    -0.9   -6.8   -0.0
H    -5.3   -4.3   -1.2
C    -5.0   -3.6   -3.2
C    -4.9   -3.3    3.6
I     5.9   -0.3   -3.7
C    -0.7   -0.4   -6.9
N    -0.9    5.0    4.8
I     4.5    4.2   -3.3
H     4.3   -2.0    5.2
I    -4.6    4.2   -3.3
I     3.2   -6.3    0.1
H    -0.7    4.3    5.6
H     0.0   -6.8    2.1
H     5.2   -3.5    3.6
H    -1.8   -0.4   -7.0
H     4.8   -4.2   -3.5
H    -4.7   -2.0    5.2
H    -1.9    5.2    4.8
I    -7.2   -1.4    0.3
I     6.1   -0.0    4.2
I     6.8   -2.8    0.3
I    -2.9    6.8    0.1
H     3.2    2.3    6.4
P    -5.1    1.8   -5.3
H    -0.4    5.9    5.0
H    -5.5   -4.3    3.5
N    -5.2   -2.8    5.0
I    -4.4    4.9    4.1
I     7.7    1.4    0.1
H     4.0   -3.5    5.7
I     4.6    4.9    4.1
H    -6.0   -4.0   -3.5
H    -0.4   -4.9    6.3
I    -2.6    2.7   -7.1
P    -0.4   -6.1   -5.4
I    -1.2    2.7    7.6
P     3.7    7.0   -2.1
H     0.9   -1.0   -8.1
N    -0.1   -0.9   -8.2
I     3.4   -0.6   -7.6
H    -4.3    1.5    7.0
I     2.1    3.9   -7.1
H    -5.0   -3.5    5.7
I     2.1   -0.8    8.1
P     3.7    7.2    2.2
I    -3.3   -6.6    4.1
H    -6.3   -2.6    5.1
I     1.0    7.6   -3.7
C     4.1    2.4    7.1
I    -5.8   -6.3    0.1
H     4.7    1.5    7.0
I    -7.7    0.8   -3.8
H    -0.5   -1.9   -8.4
I    -2.0   -4.0   -7.4
I    -3.1   -7.1   -4.0
P     8.5   -0.9   -2.1
H    -4.4    3.3    6.8
I    -7.0    5.3    0.4
I    -2.6   -1.9    8.2
P     8.5   -0.8    2.2
H     8.0    3.5   -1.1
H     4.6    3.3    6.8
H    -5.8    2.3    6.4
C    -4.9    2.4    7.1
I    -7.9    1.1    4.1
H     7.4    3.7   -3.4
I     1.4    7.8    4.3
N    -0.1   -5.6    7.1
H    -1.4    8.9   -0.0
H    -0.4   -0.3   -9.0
P    -5.4    7.0   -2.1
I     1.5   -8.2   -3.7
I     2.4   -5.3   -7.0
I     6.1    6.8    0.1
H     0.9   -5.6    7.1
H     7.5    5.1   -1.3
H    -0.4    8.9    2.1
I     1.8   -8.0    4.3
P    -5.3    7.2    2.2
I    -2.5   -9.0    0.1
H     8.0    3.5    3.3
H     3.1    1.7    8.8
N     8.2    4.4   -1.6
I    -5.6   -0.6   -7.6
H    -0.5   -6.5    6.8
H    -0.3   -4.1    8.6
N     3.6    2.5    8.5
H     3.1    6.3   -6.5
H     0.2    9.6   -0.1
H     3.0    3.4    8.6
H     8.2   -5.1   -0.2
I     5.8   -6.6    4.1
P     4.1   -8.5    2.2
H     7.6   -5.7    2.1
N    -0.8    9.7    0.2
P    -0.6    4.5   -8.7
C    -0.7   -5.1    8.4
I     2.8    9.4    0.1
C     8.3    4.2   -3.1
H    -1.8   -5.0    8.3
P    -9.6   -0.9   -2.1
P    -9.6   -0.8    2.2
P     4.1   -8.8   -2.1
I     3.4   -5.3    7.7
I     6.5    2.7   -7.1
H     7.1    5.2    4.8
C    -0.8    9.8    1.7
I     5.9   -7.1   -4.0
P    -4.9   -8.5    2.2
H    -8.4    4.2    3.5
H     7.2   -0.4   -7.0
H    -8.9    3.6   -3.3
H     8.3    5.2    2.7
H    -8.9    4.7   -1.2
I    -3.5    8.7   -4.0
I    -8.9   -3.7   -3.3
P     4.2   -3.4   -8.7
C     8.6    4.4    3.5
I     2.0    5.8    8.3
P    -4.9   -8.8   -2.1
H    -8.8   -5.1    2.0
I    -8.8   -2.9    4.5
H     9.1    4.7   -1.2
H     9.2    3.6   -3.3
H    -1.8   10.0    2.1
N    -5.4    2.5    8.5
I     9.1   -3.7   -3.3
H    -8.4   -6.1   -0.1
H     4.0    1.1   -9.6
I   -10.4    1.4    0.1
P    -4.8   -3.4   -8.7
H     4.4    2.7    9.1
N     8.6   -6.0    0.2
H     8.4    5.2   -3.6
N     3.6    7.2   -6.8
H     4.4    7.4   -6.1
H     8.1   -6.8   -0.0
I     6.5   -1.9    8.2
C     8.7   -5.9    1.7
H    -4.7    2.7    9.1
H     8.6   -1.1   -6.1
H    -4.7    7.4   -6.1
H    -1.2   10.6   -0.2
I    -3.7    9.1    4.1
I     9.2   -2.9    4.5
H   -10.0    3.5   -1.1
N     8.1    5.0    4.8
I    -1.2    7.3   -7.7
I    -7.0    3.9   -7.1
P     8.5   -0.2    6.6
H    -6.0    1.7    8.8
I    -7.0   -0.8    8.1
I     2.5  -10.4    0.4
H     3.4   -7.7   -6.7
H     9.3   -5.1    2.0
H     2.8    2.0  -10.2
H    -1.1  -10.7   -1.3
P     3.8    7.7    6.6
C     8.3   -0.4   -6.9
I    -2.5    7.0    7.9
H    -0.4   -5.8    9.1
H    -5.0    1.1   -9.6
H    -0.2   10.7    2.0
H    -6.0    6.3   -6.5
N    -9.8    4.4   -1.6
H     3.0    8.0   -6.7
I    -5.6   -5.3    7.7
I     0.2    1.7  -10.8
H     8.3    4.3    5.6
H    -0.3  -10.6    2.7
I     7.0   -4.0   -7.4
I    10.9   -1.4    0.3
I    -6.6   -5.3   -7.0
I    10.2    1.1    4.1
H    -6.1    3.4    8.6
I     5.5    8.7   -4.0
H     8.7    0.6   -6.7
I    10.3    0.8   -3.8
C    -9.5    4.4    3.5
C    -9.7    4.2   -3.1
H     0.0   -9.9    5.0
H     0.5  -11.0   -1.2
I     6.5   -9.0    0.1
P    -0.8    9.7   -5.4
P    -0.8    5.0    9.9
H     9.6    4.2    3.5
H    -9.8   -5.1   -0.2
P     3.9   -2.9   10.0
N     3.8    1.8  -10.3
H    -0.2  -10.6   -3.6
H   -10.0    3.5    3.3
H    -4.3    6.2   -8.2
N    -9.4   -6.0    0.2
H    -4.2   -8.4   -6.1
I     7.8    2.7    7.6
C    -9.4   -5.9    1.7
P     4.2   -8.1    6.6
I    -6.2    9.4    0.1
N    -5.4    7.2   -6.8
H     4.3    2.7  -10.1
H    -9.5   -1.1   -6.1
H    -9.7    5.2    2.7
H     4.7    6.2   -8.2
I     5.3    9.1    4.1
H     9.6   -6.1   -0.1
P    -5.2    7.7    6.6
I    -0.8   -8.4   -7.7
H     4.8   -8.4   -6.1
H    -4.7    2.7  -10.1
N    -0.4  -11.3   -1.6
P    -4.8   -8.1    6.6
H    -9.6    5.2   -3.6
H    -9.3    0.6   -6.7
H     0.0   -5.2  -10.3
H    -0.9    9.2    6.8
H    -9.0   -6.8    2.1
H     9.0   -6.8    2.1
H    -8.1   -1.0   -8.1
I   -11.2   -2.8    0.3
C     4.1    7.1   -8.2
P    -5.1   -2.9   10.0
H     8.6    5.9    5.0
I    -7.2   -8.0    4.3
I     1.8   -3.3  -11.0
I    -8.0    7.6   -3.7
N     4.0   -8.5   -6.8
P    -9.6   -0.2    6.6
H    -5.6   -7.7   -6.7
N    -5.2    1.8  -10.3
H    -1.5  -10.6    4.8
H     3.2    6.9   -8.9
I    -7.6   -8.2   -3.7
I    -7.7    7.8    4.3
H    -0.6    0.5   11.7
H     7.7    8.9   -0.0
I    -3.3   -1.9  -11.1
H     8.7   -4.9    6.3
N    -0.5  -10.7    4.8
H   -10.6    5.1   -1.3
H    -0.3   -6.7   -9.7
H   -10.7    3.7   -3.4
C    -0.0  -11.3    3.5
P     8.7   -6.1   -5.4
C    -4.9    7.1   -8.2
I    -2.0   -8.7    7.9
C    -0.3  -11.5   -3.1
C    -9.7   -0.4   -6.9
H     3.5   -9.4   -6.5
H     3.3   11.4   -1.2
H    -1.6   -0.9   11.8
I     1.0    2.9   11.6
N    -5.0   -8.5   -6.8
H     0.1   -1.1   12.0
H    -9.7    4.3    5.6
H   -10.4   -5.7    2.1
H     1.0  -11.5    3.5
H     7.2   -5.0    8.3
H   -10.0   -6.8   -0.0
N    -9.9    5.0    4.8
H    -1.5   -5.9  -10.5
N    -0.5   -6.1  -10.5
H    -6.1    8.0   -6.7
H     8.5   -1.9   -8.4
N     8.9   -0.9   -8.2
H    -4.0   -7.8   -8.5
H    -6.3    2.0  -10.2
H    -9.4    5.9    5.0
I     1.3   -3.8   11.5
H    -8.1   -5.6    7.1
C    -0.7   -0.5   12.2
I    -4.0  -10.8    4.1
I    -7.0    5.8    8.3
I    11.1    5.3    0.4
H    -0.6  -12.3   -1.1
H    12.1    2.5    0.3
H    -9.4   -4.9    6.3
I    -6.6  -10.4    0.4
N    -9.2   -0.9   -8.2
H     3.6    0.4  -11.8
H    -3.8    1.1  -11.7
N    -0.6   10.2    7.1
H     0.5   10.1    7.1
H     3.1   11.5    3.5
I    -3.0    4.6  -11.1
P    -9.4   -6.1   -5.4
H    -4.4    8.0   -8.5
I     6.6    7.0    7.9
C     4.1    1.3  -11.7
H    12.1    1.7    2.6
I    -3.5    4.0   11.3
H     8.7   -0.3   -9.0
I    -0.3   12.0   -3.3
H     7.2   10.0    2.1
H    -0.8   10.8    6.3
H     4.6    8.0   -8.5
H    -1.2  -12.0   -3.4
H     5.1   -7.8   -8.5
H     2.6   11.8   -3.5
H     8.6    8.9    2.1
H     0.6  -12.2   -3.3
I     5.1  -10.8    4.1
N     8.9   -5.6    7.1
H    -5.8    6.9   -8.9
I     1.1    5.8  -11.2
I    -4.1  -11.5   -3.3
H    12.3   -2.7   -1.3
I   -12.0   -0.0    4.2
H    -0.6  -12.2    3.3
I     5.8   -1.9  -11.1
H    -5.5   -9.4   -6.5
C    -4.9    1.3  -11.7
H    -0.3  -11.4    5.6
I   -12.2   -0.3   -3.7
H     8.5   -6.5    6.8
I     2.0   10.4   -7.0
N     8.2    9.7    0.2
C    -4.5   -8.7   -8.2
C     4.5   -8.7   -8.2
I     4.5   -0.4   12.0
H     4.4   11.5   -3.5
I    -4.6   -0.4   12.0
H    -5.7   11.4   -1.2
H     5.2    1.1  -11.7
C     8.3   -5.1    8.4
N    -9.2   -5.6    7.1
H    -9.5   -1.9   -8.4
H     9.9   -1.0   -8.1
H    12.8    0.9    0.4
H    -4.6   11.5   -3.5
H   -10.8   -0.4   -7.0
H     8.7   -4.1    8.6
