         400
 sphere cut out from bulk 
I    -1.0    0.2   -0.0
H     0.8   -2.4   -0.1
H     2.2   -1.5   -0.9
C     1.9   -2.4   -0.3
H     2.5   -1.5    1.5
P    -0.9    0.8    3.1
P    -1.0    0.7   -3.1
N     2.7   -2.4    0.9
H    -2.8   -2.4    0.8
I     2.3    0.6    3.2
H     2.3    3.2    0.9
H     2.1   -3.3   -0.9
I     2.2    0.8   -3.3
H     1.3    3.7   -1.2
H     2.4   -3.2    1.5
H     3.7   -2.4    0.8
H    -4.0   -1.5    1.5
I    -1.0   -2.4    3.7
N    -3.8   -2.4    0.9
H    -4.3   -1.5   -0.9
I    -1.1   -2.4   -3.8
I    -1.0    3.9   -2.6
N     2.2    4.2   -0.9
C     2.3    4.2    0.6
I    -0.9    3.9    2.7
H     3.0    3.7   -1.3
I    -1.1   -4.9   -0.0
H     1.4    4.8    1.0
C    -4.5   -2.4   -0.3
H    -3.5    3.7   -1.3
I    -4.2    0.6    3.2
H    -4.2    3.2    0.9
H    -4.0   -3.2    1.5
I    -4.2    0.8   -3.3
I     5.4    0.2   -0.0
H    -4.3   -3.3   -0.9
H     2.2    5.1   -1.3
H     3.2    4.7    0.8
H    -3.2    4.7    0.8
C    -4.2    4.2    0.6
H     2.3   -0.9   -5.4
N    -4.3    4.2   -0.9
H    -5.6   -2.4   -0.1
H     2.6   -0.9    5.5
P     5.4    0.7   -3.1
P     5.5    0.8    3.1
P    -1.1   -5.5   -3.2
P    -1.0   -5.5    3.2
H    -5.2    3.7   -1.2
I    -1.0    1.4    6.3
I    -1.1    1.3   -6.3
H     2.5    4.0    4.6
H     1.4    3.1    5.6
H     2.0   -3.3   -5.4
I     2.2   -5.4    3.1
H     0.9   -2.5    6.2
I     2.1   -5.6   -3.1
H    -3.9   -0.9    5.5
H    -4.2    5.1   -1.3
H     2.3   -3.3    5.5
H     2.5    3.9   -5.1
H    -4.1   -0.9   -5.4
N     2.6   -1.5   -6.2
H     0.8   -2.6   -6.4
H    -2.8   -1.7   -6.1
H    -5.0    4.8    1.0
I     5.4   -2.4   -3.8
I     5.4   -2.4    3.7
N     2.7   -1.5    6.4
C     2.0    4.0    5.6
I     5.4    3.9   -2.6
C     1.8   -2.8   -6.3
C     1.9   -2.8    6.3
H    -3.9    4.0    4.6
H    -2.7   -1.7    6.5
I     5.4   -4.9   -0.0
I     5.5    3.9    2.7
H     3.6   -1.7   -6.1
H    -2.9    3.1   -6.1
I    -7.4    0.2   -0.0
N    -3.8   -1.5   -6.2
H    -3.9    3.9   -5.1
N    -3.7   -1.5    6.4
I    -4.2   -5.4    3.1
H     2.5   -1.0   -7.1
H     1.4    4.9    5.7
H    -4.1   -3.3    5.5
H     7.3   -2.4   -0.1
H     2.4   -0.9    7.2
H     3.7   -1.7    6.5
H    -4.4   -3.3   -5.4
H     1.3    3.0   -7.0
H     3.6    3.1   -6.1
I    -4.3   -5.6   -3.1
H    -2.8    3.1    6.5
N     2.9    3.9   -6.0
I    -1.0    7.7   -0.0
P    -0.9    7.1    3.2
H     2.1   -7.5   -1.3
P    -1.0    7.2   -3.2
I     2.2    7.0   -3.1
N    -3.5    3.9   -6.0
H     1.4   -7.8    1.0
P    -7.4    0.8    3.1
P    -7.4    0.7   -3.1
H     3.7    3.1    6.5
I     2.3    7.2    3.1
C    -4.4    4.0    5.6
H    -5.0    3.1    5.6
H    -4.0   -1.0   -7.1
H     2.2   -3.4   -7.1
H    -2.9    4.8   -6.1
C    -4.5   -2.8    6.3
H     2.1   -3.3    7.3
P     5.4   -5.5   -3.2
C    -4.6   -2.8   -6.3
N     3.0    4.0    6.6
H    -4.0   -0.9    7.2
C     1.9    3.9   -7.1
P     5.4   -5.5    3.2
I     5.3    1.3   -6.3
N    -3.4    4.0    6.6
I     5.5    1.4    6.3
H     3.6    4.8   -6.1
H     1.3    4.8   -6.9
H     3.2   -7.9    0.8
H    -2.8    4.8    6.6
H    -3.3   -7.9    0.8
I    -7.4   -2.4    3.7
C     8.3   -2.4   -0.3
H     7.7    3.7   -1.2
C     2.2   -8.4    0.6
H    -5.6   -2.5    6.2
H    -4.3   -7.5   -1.3
I    -7.5   -2.4   -3.8
I    -4.2    7.0   -3.1
N     2.1   -8.4   -0.9
I    -7.4    3.9    2.7
H     8.6   -1.5   -0.9
I    -7.5    3.9   -2.6
I    -1.0   -6.1    6.3
I    -4.2    7.2    3.1
I    -1.1   -6.1   -6.3
H     3.7    4.8    6.6
H     2.6    3.9    7.6
H    -5.7   -2.6   -6.4
I    -7.5   -4.9   -0.0
H    -4.2   -3.4   -7.1
H    -5.0    4.9    5.7
H     1.2   -8.9   -1.2
H    -4.3   -3.3    7.3
I    -1.1    6.5   -6.3
I    -1.0    6.5    6.3
I    -1.0   -8.7    2.7
I    -1.1   -8.7   -2.6
I    -1.0   -2.3    8.8
H     8.9   -1.5    1.5
H    -5.2    3.0   -7.0
H     8.6   -3.3   -0.9
H     7.9    4.8    1.0
I     8.6    0.8   -3.3
H     2.4    4.0   -8.0
I    -1.1   -2.4   -8.9
C    -4.5    3.9   -7.1
H     8.7    3.2    0.9
I     8.7    0.6    3.2
H    -3.8    3.9    7.6
H    -5.1   -7.8    1.0
C    -4.2   -8.4    0.6
I     5.4    7.7   -0.0
N     9.1   -2.4    0.9
H     2.9   -8.9   -1.3
P     5.4    7.2   -3.2
N    -4.3   -8.4   -0.9
P     5.5    7.1    3.2
H    -9.2   -2.4    0.8
H     8.9   -3.2    1.5
P    -0.9    0.8    9.5
P    -1.0    0.8   -9.5
H     2.2    9.3   -0.9
N     8.6    4.2   -0.9
I     2.3    0.8    9.3
I     2.2    0.6   -9.4
H    -3.5   -8.9   -1.3
C     8.7    4.2    0.6
H     1.3   -7.7    5.7
H     2.2   -9.4    0.9
P    -7.4   -5.5    3.2
P    -7.5   -5.5   -3.2
H     2.5    9.4    1.5
I    -7.4    1.4    6.3
H    -4.0    4.0   -8.0
H    -5.2    4.8   -6.9
I    -7.5    1.3   -6.3
H     7.3   -2.5    6.2
H     7.2   -2.6   -6.4
H     2.4   -8.6    4.6
H     8.6    5.1   -1.3
H     7.8    3.1    5.6
H     9.4    3.7   -1.3
I    -4.1    0.8    9.3
I     5.3   -6.1   -6.3
H    -4.2    9.3   -0.9
H    -4.0    9.4    1.5
H     0.9   10.3   -0.1
I     5.4   -6.1    6.3
H     8.7   -0.9   -5.4
I    -4.3    0.6   -9.4
H    -2.9   -7.9   -6.1
H    -5.2   -8.9   -1.2
H     2.5   -8.7   -5.1
H    -4.2   -9.4    0.9
C     2.0   10.2   -0.3
H    10.1   -2.4    0.8
C     1.9   -8.6    5.6
H     1.2   -7.8   -6.9
I     5.4    6.5   -6.3
H     3.5   -7.9   -6.1
I     5.3   -8.7   -2.6
N   -10.2   -2.4    0.9
H    -2.7   10.2    0.8
H    -4.0   -8.6    4.6
H     8.4   -3.3   -5.4
I     5.5   -8.7    2.7
H    -2.8   -7.8    6.6
I     5.5    6.5    6.3
N     2.7   10.2    0.9
H     9.0   -0.9    5.5
H   -10.4   -1.5    1.5
I     5.5   -2.3    8.8
H    -9.9    3.7   -1.3
I     5.3   -2.4   -8.9
I     8.7   -5.4    3.1
I    -7.4    7.7   -0.0
P    -7.4    7.1    3.2
I     8.6   -5.6   -3.1
I    -1.0    3.9  -10.0
C     8.3   -2.8   -6.3
H     9.7    4.7    0.8
H    -9.7    4.7    0.8
P    -7.4    7.2   -3.2
H     8.9    4.0    4.6
H     3.6   -7.8    6.6
H     7.8    4.9    5.7
H   -10.7   -1.5   -0.9
H     7.7    3.0   -7.0
H    -4.0   -8.7   -5.1
H     8.7   -3.3    5.5
I    -0.9    3.9   10.1
C     8.4    4.0    5.6
H     3.7   10.2    0.8
C     8.4   -2.8    6.3
H    -5.1   -7.7    5.7
N    -3.7   10.2    0.9
H     2.1    9.3   -5.4
I    -0.9   10.2    3.7
N     2.9   -8.7   -6.0
P    -1.0   -5.4    9.5
P     5.4    0.8   -9.5
I    -1.0   10.2   -3.8
H     9.0    3.9   -5.1
P    -1.1   -5.5   -9.5
H     2.4    9.3    5.5
P     5.5    0.8    9.5
H   -10.5   -3.2    1.5
N     9.0   -1.5   -6.2
I   -10.6    0.6    3.2
H     7.8   -7.8    1.0
H   -10.6    3.2    0.9
N    -3.6   -8.7   -6.0
H     1.3   -9.5    5.6
C    -4.5   10.2   -0.3
I     2.1   -5.5   -9.5
I   -10.7    0.8   -3.3
C    -4.5   -8.6    5.6
H    -9.3   -1.7   -6.1
C   -11.0   -2.4   -0.3
N     9.1   -1.5    6.4
I     2.2   -5.6    9.5
H   -10.7   -3.3   -0.9
N     3.0   -8.7    6.6
C     1.8   -8.7   -7.1
H    -9.2   -1.7    6.5
H     2.2   11.1   -0.9
C   -10.6    4.2    0.6
H     8.9   -1.0   -7.1
N    -3.5   -8.7    6.6
H     8.8   -0.9    7.2
H     8.6   -7.5   -1.3
H     7.7    4.8   -6.9
H     2.5   11.1    1.5
H     2.4   -1.6  -11.1
H    -4.1    9.3    5.5
N   -10.7    4.2   -0.9
I    -7.5   -6.1    6.3
I     8.6    7.0   -3.1
H    -9.3    3.1   -6.1
H    -4.4    9.3   -5.4
I    -7.6   -6.1   -6.3
C     8.3    3.9   -7.1
H    -5.2   -7.8   -6.9
H    -5.5   10.3   -0.1
H    -2.9   -9.5   -6.1
H     8.6   -3.3    7.3
H    -9.2    3.1    6.5
I     8.7    7.2    3.1
H     8.6   -3.4   -7.1
H   -10.3   -0.9    5.5
I    -7.4    6.5    6.3
I    -7.4   -8.7    2.7
I    -7.4   -2.3    8.8
I    -7.5    6.5   -6.3
H     7.7   -8.9   -1.2
N     9.4    3.9   -6.0
H     2.6   -8.7    7.6
I    -4.2   -5.6    9.5
H     2.3   -3.3  -11.1
I    -7.5   -8.7   -2.6
I    -4.3   -5.5   -9.5
C     1.9    9.8   -6.3
H    -3.9   11.1    1.5
H     3.5   -9.5   -6.1
H    -2.8   -9.5    6.5
P    -1.0    7.1   -9.5
I    11.9    0.2   -0.0
C     2.0    9.8    6.3
H     0.9   10.1    6.2
H    10.0   -1.7   -6.1
H     2.3    9.2   -7.1
I    -7.5   -2.4   -8.9
H     1.2   -9.6   -7.0
H    -4.2   11.1   -0.9
H   -10.6   -0.9   -5.4
P    -0.9    7.2    9.5
H   -10.7    5.1   -1.3
H    -4.1   -1.6  -11.1
H     0.8   10.0   -6.4
I     5.4    3.9  -10.0
H     2.2    9.3    7.3
H   -10.4    4.0    4.6
P    -7.3    0.8    9.5
H     2.3   -1.5   11.7
H     2.3   -8.7   -8.0
I     2.3    7.0    9.5
N     8.5   -8.4   -0.9
H     3.6   -9.5    6.5
H     1.4    3.8   11.4
C     8.7   -8.4    0.6
H    -9.3    4.8   -6.1
N   -10.2   -1.5    6.4
C    -4.6   -8.7   -7.1
I     2.2    7.1   -9.5
P    -7.5    0.8   -9.5
N   -10.3   -1.5   -6.2
H    10.0    3.1   -6.1
I     5.5    3.9   10.1
H    -3.9   -8.7    7.6
H   -10.4    3.9   -5.1
H    10.2   -1.7    6.5
P     5.3   -5.5   -9.5
N     2.6   -2.4  -11.7
P     5.5   -5.4    9.5
H    -5.1   -9.5    5.6
I     5.4   10.2   -3.8
I     5.5   10.2    3.7
N     9.5    4.0    6.6
H   -11.6    3.7   -1.2
N    -9.9    3.9   -6.0
P    -1.0  -11.8    3.1
H     3.1    3.7   11.3
H   -12.0   -2.4   -0.1
H    -9.2    4.8    6.6
H    -4.1   -3.3  -11.1
H     2.2    3.1  -11.7
P    11.9    0.7   -3.1
P    -1.1  -11.9   -3.1
H    -3.3    3.7   11.3
H     7.8   -7.7    5.7
I   -10.7   -5.4    3.1
H   -10.6   -3.3    5.5
P    12.0    0.8    3.1
H     2.2   -3.3   11.7
H    -4.2    9.2   -7.1
H    10.1    3.1    6.5
I     2.1  -11.8   -3.3
H   -11.4    4.8    1.0
H     9.1    3.9    7.6
H     9.6   -7.9    0.8
H    -2.9   -2.5  -11.9
N    -9.8    4.0    6.6
H    -4.1   -8.7   -8.0
I    -1.1  -12.5   -0.0
C    -4.5    9.8   -6.3
I   -10.7   -5.6   -3.1
I    -4.1    7.0    9.5
C    -4.4    9.8    6.3
H    -4.1   -1.5   11.7
N    -3.9   -2.4  -11.7
H    -4.3    9.3    7.3
H    -9.7   -7.9    0.8
