         400
 sphere cut out from bulk 
P     1.8   -0.2    0.7
I    -0.1    1.9   -0.9
I    -0.9   -1.8    1.6
H    -1.7   -2.3   -0.8
H    -2.1    0.3    2.5
I     1.9   -2.0   -2.0
H    -1.5    1.8    2.7
H     0.7    1.4   -3.4
H    -2.9    1.5    1.8
N    -2.3    1.3    2.6
N    -2.3   -2.8   -1.5
I     1.5    1.7    3.2
H     1.7    0.1   -3.5
H    -2.6   -1.1   -2.7
H     1.0    3.9    0.7
H    -1.7   -3.3   -2.2
C    -3.2   -1.8   -2.2
H    -3.8   -1.3   -1.4
N     1.2    0.9   -4.1
H    -2.8   -3.5   -1.0
I     4.4    1.4   -0.3
I    -4.5    1.4   -0.3
H     0.6    0.4   -4.7
H     2.0   -4.3    0.7
P    -2.7    3.4   -2.0
I     3.7   -2.3    2.2
N     0.9    4.9    1.0
C    -3.1    1.4    3.9
H     0.0    5.3    0.7
H    -3.9   -2.4   -2.9
H     2.9    2.2   -4.0
H     0.9    5.0    2.0
H    -2.5    1.1    4.7
H     5.1   -1.3   -1.4
I    -2.6    1.6   -4.5
C     2.2    1.8   -4.7
H     1.6   -1.1    5.2
H    -4.1    0.9    3.8
C     2.1   -5.4    0.4
H    -3.4    2.5    4.0
H     0.0   -5.8    0.7
H     2.0   -5.5   -0.7
P    -2.8   -4.0    3.3
H     2.0    5.6   -0.7
I    -2.7    5.4    0.6
C     2.1    5.7    0.4
H     3.0    5.3    0.7
H     1.7    2.6   -5.3
I    -5.3   -2.3    2.2
H     2.8    1.2   -5.4
H     2.8   -2.5    5.0
H     4.9    0.9    3.8
I    -2.6   -5.7    0.6
N     1.0   -6.2    1.0
H     5.1   -2.4   -2.9
P     1.8   -4.0   -4.6
I    -0.1   -1.8   -6.1
C     2.2   -1.9    5.7
I    -0.8   -5.4   -3.4
C     5.7   -1.8   -2.2
H     6.1    1.5    1.8
H     1.0   -6.1    2.0
H     0.6   -3.2    5.7
H     3.0   -5.8    0.7
I    -0.8    5.7   -3.4
I    -2.7   -2.1    5.9
I    -0.2   -5.4    4.4
I     3.7    5.0   -3.1
H     6.3   -1.1   -2.7
P     1.7    3.4    5.9
H     2.0    6.7    0.7
N     1.2   -2.8    6.4
H     6.1   -3.5   -1.0
C     5.8    1.4    3.9
I    -0.2    5.7    4.4
P    -7.1   -0.2    0.7
H     2.8   -1.4    6.5
N     6.6    1.3    2.6
H     1.0   -7.2    0.7
H     5.6    2.5    4.0
H     6.9    0.3    2.5
N     6.7   -2.8   -1.5
P     6.2    3.4   -2.0
I    -0.9    2.0    7.1
H     0.6   -2.2    7.1
I     4.3   -2.4   -5.7
H    -6.1    2.2   -4.0
P    -2.7   -0.3   -7.1
I    -7.1   -2.0   -2.0
H     7.3   -2.3   -0.8
I    -4.6   -2.4   -5.7
I     3.7   -6.1   -3.1
H    -2.5    4.7   -5.7
I    -5.3    5.0   -3.1
H     1.6   -3.5    6.9
I     6.3    1.6   -4.5
H    -6.0    5.3    0.7
P     6.1   -4.0    3.3
H     6.4    1.1    4.7
H    -7.3    0.1   -3.5
I     4.2    5.0    4.7
H    -2.8    7.6   -1.0
H     7.5    1.8    2.7
H    -1.7    7.8   -2.2
H    -7.0   -4.3    0.7
H     7.3   -3.3   -2.2
H    -6.1    1.2   -5.4
I     3.6    1.4    7.3
I     6.3    5.4    0.6
I    -7.5    1.7    3.2
P    -2.7   -7.6   -2.0
H    -5.9   -5.8    0.7
P    -2.8    7.1    3.3
I    -4.7    5.0    4.7
H    -6.2   -2.5    5.0
C    -6.7    1.8   -4.7
I     8.1   -1.8    1.6
I     6.3   -5.7    0.6
I    -5.2   -6.1   -3.1
P     1.8    7.1   -4.6
N    -2.3    8.3   -1.5
C    -6.9   -5.4    0.4
H    -3.3   -4.9   -6.5
N    -7.7    0.9   -4.1
I     4.3   -6.1    4.7
H     1.0   -2.5   -8.4
I     6.3   -2.1    5.9
H    -7.0   -5.5   -0.7
C    -3.1    5.1   -6.6
H    -2.5   -6.3   -5.7
P    -2.8   -0.2    8.5
H    -8.0    3.9    0.7
C    -6.9    5.7    0.4
H    -7.0    5.6   -0.7
H    -1.7    8.8   -0.8
H    -4.0    4.5   -6.7
I    -4.7   -6.1    4.7
I    -0.8    1.8   -8.8
H    -7.3   -1.1    5.2
H    -6.2   -1.4    6.5
H    -8.3    1.4   -3.4
C    -6.8   -1.9    5.7
H    -2.0    3.9   -8.0
I     1.5    5.3   -7.2
I     8.9    1.9   -0.9
I    -5.3    1.4    7.3
I    -0.1   -9.1   -0.9
I     3.8    1.4   -8.3
I    -9.0    1.9   -0.9
H    -7.3    2.6   -5.3
I     1.6   -5.7   -7.2
C    -3.1   -6.0   -6.6
P    -7.2   -4.0   -4.6
H    -1.8    4.1    8.3
I    -0.9    9.3    1.6
H    -2.7   -4.8    7.7
N    -8.0    4.9    1.0
H     5.0    4.5   -6.7
P     6.2   -0.3   -7.1
I     1.8    9.1   -2.0
H    -3.3    6.2   -6.5
N    -2.3    4.9   -7.8
H    -8.3    0.4   -4.7
H    -1.4    5.5   -7.8
H    -8.0    5.0    2.0
H    -1.4   -5.6   -7.8
H     0.5    7.8    5.7
H    -7.0    6.7    0.7
I    -0.1   -1.7    9.6
H    -1.4   -9.3    2.7
I     3.7    8.8    2.2
P     1.7   -7.6    5.9
H     6.1    7.6   -1.0
N     1.0   -2.5   -9.5
I    -5.2    1.4   -8.3
H     6.5    4.7   -5.7
H     5.7   -4.9   -6.5
H    -3.9    5.0    7.6
H    -3.9    8.7   -2.9
P    -7.3    3.4    5.9
P     6.1    7.1    3.3
H     2.1   -0.7   -9.7
H     0.1   -2.1   -9.8
H    -3.4   -8.6    4.0
C    -3.2    9.2   -2.2
I     1.5   -9.4    3.2
P     6.2   -7.6   -2.0
H    -2.9   -9.5    1.8
H     2.9   -8.8   -4.0
I    -9.8   -1.8    1.6
H     1.9    2.0    9.8
N    -8.0   -6.2    1.0
H     1.7   -8.5   -5.3
H    -4.0   -6.6   -6.7
C     5.9    5.1   -6.6
I     1.8    5.4    8.5
N    -2.3   -6.1   -7.8
H     0.7   -9.7   -3.4
H    -8.0   -6.1    2.0
H     9.6    1.4   -3.4
I     1.8   -5.6    8.5
H    -2.7    6.3    7.7
H     2.7    8.6    5.0
I     8.2   -5.4   -3.4
H     1.6    7.5    6.9
N    -2.4    4.6    9.0
I    -2.6   -2.0   -9.9
H     5.0    5.0    7.6
N    -2.3   -9.8    2.6
H     3.1   -2.2   -9.7
H     1.1   -3.5   -9.8
H    -9.0    5.3    0.7
C     2.2   -1.7  -10.1
H     9.0    5.3    0.7
C    -3.3   -5.5    8.3
N    -7.8   -2.8    6.4
H     5.1    8.7   -2.9
P     6.2   -0.2    8.5
H    -3.9   -6.1    7.6
I    -5.3    8.8    2.2
I     8.2    5.7   -3.4
H    -2.8    5.2   -8.7
C    -3.3    5.6    8.3
P     1.9    3.4   -9.8
N     1.2    8.3    6.4
H     5.7    6.2   -6.5
H    -3.9    9.7   -1.4
H     5.0   -6.6   -6.7
C     2.2   -9.3   -4.7
I     4.5   -9.7   -0.3
H    -2.6   10.0   -2.7
H    -8.4   -3.2    5.7
H    -8.9   -5.8    0.7
C     5.9   -6.0   -6.6
H    -7.3   -3.5    6.9
H    -2.9    3.9    9.5
I    -4.5   -9.7   -0.3
H     9.9    3.9    0.7
H     9.6    0.4   -4.7
H     9.0   -5.8    0.7
N     6.6    8.3   -1.5
H     6.5   -6.3   -5.7
H    -8.0   -7.2    0.7
P    10.8   -0.2    0.7
H     7.2    7.8   -2.2
C    -3.1   -9.6    3.9
H    -2.8   -5.9   -8.7
I    -2.6   -9.5   -4.5
H    -2.0   -7.1   -8.0
I     8.9   -1.8   -6.1
H   -10.4    1.8    2.7
H     5.0   -6.1    7.6
H   -10.7   -2.3   -0.8
I     8.1    2.0    7.1
H    -1.8   -7.0    8.3
H     5.6   -8.6    4.0
H    -3.9   -5.0    9.0
H     6.3   -4.8    7.7
P     1.8   10.8    0.7
N    10.2    0.9   -4.1
N     1.3  -10.2   -4.1
C     2.1    9.2    5.7
I    10.4    1.7    3.2
I    -9.1   -1.8   -6.1
H    -1.8    5.1    9.7
P    -7.2    7.1   -4.6
C     5.7    9.2   -2.2
H     5.1    9.7   -1.4
N     9.9    4.9    1.0
I    -2.7    9.0    5.9
I    -0.1    9.3   -6.1
I    10.8   -2.0   -2.0
H     0.9    0.3   11.2
H    -8.4   -2.2    7.1
C     2.0    2.0   10.9
I     8.8   -5.4    4.4
H    10.7    0.1   -3.5
I     4.3    8.7   -5.7
H    -2.1  -10.8    2.5
H     9.9    5.0    2.0
H    -0.1    1.6   11.2
N    -2.4   -6.4    9.0
I     4.4   -2.3   10.2
H     7.0    3.9   -8.0
H   -11.0    0.3    2.5
H    -2.5  -10.0    4.7
I     8.8    5.7    4.4
H     0.6    8.8    7.1
H     1.6   10.0    5.2
I    -4.6   -2.3   10.2
H   -10.7   -3.3   -2.2
I    -4.7    8.7   -5.7
H     7.2    8.8   -0.8
N     6.7    4.9   -7.8
C     5.7   -5.5    8.3
H    -6.1   -8.8   -4.0
H     6.1   -9.5    1.8
H    -1.6    1.4  -11.3
P     1.8  -11.3    0.7
C     5.7    5.6    8.3
H     5.1   -5.0    9.0
I    -9.1   -5.4    4.4
H    -1.8   -5.9    9.7
H     2.1   -1.8  -11.1
I    -2.7    1.7   11.1
I    -0.9   -9.0    7.1
H    -5.9   -2.2   -9.7
N     0.9    1.3   11.5
H     9.5   -3.2    5.7
H    -3.9    6.1    9.0
I    -9.1    5.7    4.4
H    -4.0  -10.2    3.8
H     1.7  -10.9   -3.5
H     2.8   -9.9   -5.4
I    -9.8   -5.4   -3.4
I    -7.4    5.3   -7.2
N   -11.3    1.3    2.6
H     0.6  -10.7   -4.7
H     2.9    1.6   11.2
N   -11.3   -2.8   -1.5
H     7.2    4.1    8.3
N     9.9   -6.2    1.0
I    -7.1    9.1   -2.0
H    -2.8    0.2  -11.4
H     1.9    3.1   11.2
H    -6.2    8.6    5.0
H     6.3    6.3    7.7
I    -9.8    5.7   -3.4
H    -2.1   11.3    2.5
H    11.0   -4.3    0.7
H    -7.9   -2.5   -8.4
H     6.1    5.2   -8.7
H    10.6   -1.1    5.2
H     9.9   -6.1    2.0
I    -7.4   -5.7   -7.2
H     1.7   11.2   -3.5
C     5.8   -9.6    3.9
I     6.4   -2.0   -9.9
H     6.1    3.9    9.5
P     1.8   -3.9   11.2
H     2.8    9.6    6.5
H     4.9  -10.2    3.8
H    -6.9   -0.7   -9.7
H   -11.6   -1.1   -2.7
H     5.0    6.1    9.0
N     6.7   -6.1   -7.8
N     6.6    4.6    9.0
P    -7.2   -7.6    5.9
H     1.0    8.6   -8.4
H   -11.9    1.5    1.8
H     9.6   -2.2    7.1
H     6.3   10.0   -2.7
N     6.6   -9.8    2.6
H     6.2   -5.9   -8.7
H    10.7    2.6   -5.3
H     7.6    5.5   -7.8
I     8.2    1.8   -8.8
N    -2.2    0.9  -11.9
H    -7.0    2.0    9.8
H     7.5   -9.3    2.7
H    -2.9   -7.1    9.5
H     7.6   -5.6   -7.8
H     9.9   -7.2    0.7
C    -6.8   -1.7  -10.1
H    11.0   -5.5   -0.7
C    11.2    1.8   -4.7
I     6.3   -9.5   -4.5
C    11.0   -5.4    0.4
N    10.1   -2.8    6.4
I    -9.9    2.0    7.1
H    11.0    5.6   -0.7
H   -11.8   -3.5   -1.0
P    10.8   -4.0   -4.6
P   -11.7    3.4   -2.0
I    -7.2    5.4    8.5
H    -7.3   -8.5   -5.3
H     1.0    7.6   -9.8
C    -6.7   -9.3   -4.7
I     8.1    9.3    1.6
C    11.0    5.7    0.4
I    -7.5   -9.4    3.2
I     6.2    9.0    5.9
H     0.6   11.5   -4.7
I    -7.2   -5.6    8.5
H   -11.5    1.1    4.7
C   -12.2   -1.8   -2.2
P    -7.1    3.4   -9.8
P     1.9   -7.6   -9.8
I   -11.6    1.6   -4.5
I     0.0   -5.5  -11.3
H     0.9    1.3   12.5
H    -7.3    7.5    6.9
N    -7.9   -2.5   -9.5
I    -0.0    5.6  -11.3
C    11.1   -1.9    5.7
P    10.7    3.4    5.9
I    -4.5    5.0  -10.8
H    11.8    2.2   -4.0
N     1.2   12.0   -4.1
H    -3.8    2.3  -11.9
