         400
 sphere cut out from bulk 
I    -1.6   -0.0    1.3
P    -0.8   -0.7   -1.8
I     2.0    0.8   -1.8
H     0.2    3.4   -0.1
H    -0.1    3.2    1.7
I     2.9   -0.5    2.4
I    -2.5    2.0   -2.2
I     0.8   -3.5   -1.4
C    -0.1    3.9    0.8
P     0.1   -0.6    4.0
H    -1.1    4.3    0.7
P     4.4    1.0    0.1
P    -4.5    1.0    0.1
I    -3.6   -2.2   -1.8
H    -3.6   -2.9    1.1
I    -0.1   -1.4   -4.9
H     1.8    4.6    1.3
I    -0.3   -3.7    3.6
I     0.5    2.6    4.5
N     0.9    5.0    1.1
P     2.8   -2.5   -3.7
H     1.9    1.5   -4.8
H     0.8   -5.3    0.3
H    -2.8   -3.2    3.4
H     3.9   -3.9    1.6
C    -4.0   -3.7    1.8
H     0.9    5.7    0.3
H     0.5   -5.4    2.0
I     4.2    3.7    1.6
H     2.9    2.1    4.6
H     0.6    5.5    2.0
H    -4.3   -2.4    3.3
N    -3.8   -3.3    3.2
H    -3.4   -4.7    1.6
I     5.3   -2.2   -1.8
H    -2.5    3.8   -4.0
N     0.8   -6.0    1.1
H     4.6   -2.4    3.3
I    -4.7    3.7    1.6
H     5.4   -2.9    1.1
C     2.3    2.2   -5.4
I    -2.7   -0.6    5.7
H    -1.9   -4.9   -3.6
H     1.7    3.2   -5.3
C     4.9   -3.7    1.8
I    -6.0   -0.5    2.4
H    -5.0   -3.9    1.6
H     4.4    1.2    4.7
N     4.0    2.2    4.8
H    -4.5    1.2    4.7
H     4.3    2.8    4.1
H     3.4    2.4   -5.2
H     1.7   -6.3    1.3
H    -0.5    5.1   -4.3
H    -1.2   -6.6    0.7
H    -4.6    2.8    4.1
N     5.1   -3.3    3.2
H    -4.2   -4.0    3.9
N    -2.5    4.5   -4.8
I     1.8   -1.1    6.8
I     6.4    2.0   -2.2
C    -0.2   -7.0    0.8
H    -2.2    3.9   -5.6
C    -1.6   -5.4   -4.5
I    -7.0    0.8   -1.8
N    -5.0    2.2    4.8
H    -0.6   -5.8   -4.3
H    -1.6   -4.7   -5.3
C    -1.5    5.6   -4.5
H     4.7   -4.0    3.9
H    -1.8    6.1   -3.6
H    -3.3    6.3    1.6
H     1.1    1.7   -7.1
N     2.1    1.8   -6.8
H     5.5   -4.7    1.6
I     7.3   -0.0    1.3
H    -0.3    4.3    6.1
I     4.3   -1.0   -6.0
H     2.6    0.9   -7.0
P    -6.1   -2.5   -3.7
H     0.1   -7.6   -0.1
I     0.9    7.4   -1.4
I    -4.6   -1.0   -6.0
I    -1.4    2.2   -7.2
H     0.3   -4.3    6.3
H     6.1   -3.2    3.4
H    -3.4    4.8   -4.9
H    -6.0    2.1    4.6
P    -1.8   -0.9   -7.7
H    -0.2   -7.7    1.7
C     4.1    2.6    6.2
H    -3.7    2.7    6.4
I     3.1   -5.2   -5.2
H    -5.6    2.4   -5.2
H     3.7    1.8    6.9
I    -0.2    7.3    3.6
H     3.6    3.5    6.4
H     4.0    7.1    1.6
C    -4.8    2.6    6.2
H     2.5    2.5   -7.5
P     8.1   -0.7   -1.8
H    -1.5    6.2   -5.3
I     3.1    5.7   -5.2
C    -3.9    7.2    1.8
I     6.2   -0.6    5.7
H     6.4    3.8   -4.0
N    -2.6   -6.5   -4.8
N    -0.6    4.8    6.9
I     4.1   -7.2    1.6
H    -7.1    4.6    1.3
H     5.6    6.3    1.6
H    -3.5   -6.1   -4.9
H    -2.6   -7.2   -4.0
H    -7.0    1.5   -4.8
H    -1.6    5.2    6.7
H     5.2    2.7    6.4
H    -0.7    4.1    7.7
C     0.3   -5.0    7.2
H    -4.9    7.1    1.6
H    -3.5    8.0    1.1
H    -5.2    1.8    6.9
I    -4.8   -7.2    1.6
H     5.5    4.8   -4.9
C    -6.6    2.2   -5.4
H    -2.7    7.8    3.4
I    -8.1   -3.5   -1.4
H    -4.1    7.0    3.9
H     7.8    4.3    0.7
C     5.0    7.2    1.8
H    -1.7   -5.7    6.7
H    -0.4   -6.7    6.1
I    -4.0   -4.8    6.5
H    -5.3    3.5    6.4
N    -3.7    7.7    3.2
H     0.4    6.6    6.3
N     6.5    4.5   -4.8
H     2.8   -2.7   -8.3
H     1.2   -5.5    7.3
H    -0.1   -4.5    8.1
N    -0.7   -6.1    6.9
H     7.0   -4.9   -3.6
H     1.3    5.5    7.3
P    -4.3   -2.1    7.9
H    -2.3   -7.0   -5.6
I    -2.1   -4.0   -8.1
H    -8.7    3.4   -0.1
C     0.3    5.9    7.2
H     4.8    7.0    3.9
H     2.9   -4.3   -7.8
I    -5.9   -5.2   -5.2
I     1.1   -0.9   -9.3
I     4.9   -4.8    6.5
P     4.6   -2.1    7.9
H    -6.3    0.9   -7.0
H    -7.2    3.2   -5.3
I     0.4   -8.4    4.5
H     8.8    3.2    1.7
I    -2.6   -8.9   -2.2
N    -8.0    5.0    1.1
H     5.4   -6.1   -4.9
H     1.6   -7.8   -5.3
I    -3.6    8.7   -1.8
H     6.7    3.9   -5.6
H    -8.1   -5.3    0.3
I    -5.8    5.7   -5.2
H    -7.2   -6.3    1.3
C     8.8    3.9    0.8
P     2.9    8.5   -3.7
P    -8.8   -0.6    4.0
I    -3.9    6.1    6.5
H     9.1    3.4   -0.1
H     5.4    8.0    1.1
H    -9.0    3.2    1.7
N     3.3   -3.7   -8.5
I    -0.7    2.4    9.5
N     5.2    7.7    3.2
N    -6.8    1.8   -6.8
H    -8.0    5.7    0.3
C    -9.0    3.9    0.8
P     9.0   -0.6    4.0
I    -7.1   -1.1    6.8
P     1.0   -0.4    9.8
I    -8.5    2.6    4.5
P    -9.8   -0.7   -1.8
H     4.3   -3.6   -8.2
I     8.6   -3.7    3.6
H     7.1    6.1   -3.6
H     4.2   -8.1    4.1
H    -4.6   -3.6   -8.2
H    -4.2    8.6    3.3
N    -8.1   -6.0    1.1
C     7.3   -5.4   -4.5
I    -1.8   -1.9    9.9
I     5.0    6.1    6.5
H     7.7   -6.6    0.7
H    -6.4    2.5   -7.5
H    -8.3    5.5    2.0
H    -8.4   -5.4    2.0
I     8.9   -1.4   -4.9
H    -4.7   -8.1    4.1
H     7.4   -4.7   -5.3
N     6.4   -6.5   -4.8
H    -0.8   -6.8    7.7
C     7.4    5.6   -4.5
I    -9.0   -1.4   -4.9
H     6.3   -7.2   -4.0
H     0.0    6.5    8.1
H     4.7    8.6    3.3
H     3.5   -7.4    6.4
I     5.4    8.7   -1.8
P    -0.7   10.2   -1.8
H     2.9   -8.9    4.6
I     9.7   -3.5   -1.4
C     2.2   -8.7   -5.4
H     6.2    7.8    3.4
I     1.9  -10.2   -1.8
P     7.2   -0.9   -7.7
I    -9.2   -3.7    3.6
H     3.3   -8.6   -5.2
H    -2.0    2.9  -10.0
I     3.8    1.1    9.8
I   -10.5   -0.0    1.3
H     3.0    6.6   -7.8
I     7.5    2.2   -7.2
H    -7.8    1.7   -7.1
H    -6.1   -2.7   -8.3
I     9.4    2.6    4.5
I     0.0    9.5   -4.9
H    -6.0   -4.3   -7.8
N     3.9   -8.8    4.8
H     8.4    5.1   -4.3
H     1.8   -9.5   -4.8
N    -5.6   -3.7   -8.5
I    -2.0    6.9   -8.1
P     4.3   -9.9    0.1
I     2.4    3.3  -10.1
H   -10.0    4.3    0.7
P    -4.6   -9.9    0.1
I    -3.5   -0.4  -10.4
I    -8.0    7.4   -1.4
I     2.6   -3.2   10.2
P    -6.0    8.5   -3.7
H     9.4   -5.4    2.0
N     9.8    5.0    1.1
H     8.3   -5.8   -4.3
H    -1.3    5.2   -9.7
I    10.9    0.8   -1.8
I    -1.5   10.9    1.3
I     3.0   10.4    2.4
H     7.5    6.2   -5.3
H     9.8   -5.3    0.3
H    -3.8   -8.2    6.4
H     2.1   -4.2  -10.1
P     0.2   10.4    4.0
C     3.1   -4.1   -9.9
I     6.3   -8.9   -2.2
I    -5.1    1.1    9.8
H     9.5    5.5    2.0
C     4.0   -8.3    6.2
H     6.7   -7.0   -5.6
H    -5.4   -7.4    6.4
H    -0.0    4.2  -10.4
I    -1.7  -11.0    1.3
N    -5.0   -8.8    4.8
H     7.3    5.2    6.7
C     8.7   -7.0    0.8
I     6.8   -4.0   -8.1
H     8.6    4.3    6.1
H    -1.3   -5.8   -9.7
H     9.8    5.7    0.3
H     7.2   -5.7    6.7
I    -1.5   -8.8   -7.2
N     9.7   -6.0    1.1
C    -4.9   -8.3    6.2
H    -5.7   -8.6   -5.2
C    -1.9    3.5  -10.8
C    -9.1   -7.0    0.8
N    -1.0    4.6  -10.5
H    -9.4    5.1   -4.3
H    -8.6   -4.3    6.3
H     2.4   -8.5   -7.5
H     3.5   -3.3  -10.5
N     2.0   -9.1   -6.8
H    -8.8   -7.6   -0.1
H     5.1   -8.2    6.4
H     4.3   -9.7    4.7
N     3.4    7.3   -8.5
H     1.0   -9.2   -7.1
H    -6.1   -8.9    4.6
H    -4.6   -9.7    4.7
I     5.5   -0.4  -10.4
H     8.7   -7.7    1.7
H    10.7    4.6    1.3
I   -11.4    2.0   -2.2
H     3.7   -5.0  -10.0
H    -5.9    6.6   -7.8
H     9.1   -7.6   -0.1
N     8.3    4.8    6.9
H    -9.3    4.3    6.1
P    -0.9  -11.7   -1.8
I     8.7    7.3    3.6
H    -7.3   -7.8   -5.3
P     2.6    0.6  -11.6
H    10.8    1.5   -4.8
H    -7.6    5.5    7.3
H     4.4    7.4   -8.2
H    -7.7   -5.5    7.3
H    -9.5   -5.8   -4.3
H    -4.5    7.4   -8.2
H     9.2   -4.3    6.3
H     3.6   -9.1    6.9
H     8.2    4.1    7.7
I     2.1   11.7   -1.8
H    -2.9    4.0  -11.0
I     2.8  -11.5    2.4
H     2.9    8.2   -8.3
I    11.8   -0.5    2.4
H   -10.1   -6.6    0.7
H    -9.1   -7.7    1.7
I    -2.7   10.4    5.7
I     1.9    9.9    6.8
P    -2.7    1.4   11.7
C    -5.8   -4.1   -9.9
P    -0.0  -11.5    4.0
I    -9.1    7.3    3.6
I    -7.8   -0.9   -9.3
H    -1.6    3.0  -11.7
I    -5.9   10.4    2.4
H     3.8    5.9  -10.0
C    -6.7   -8.7   -5.4
H    -5.4   -3.3  -10.5
I     7.1   -1.9    9.9
H     2.1    6.7  -10.1
H    10.7    3.2   -5.3
C    -8.7   -5.0    7.2
H    -0.1   -6.7  -10.4
N     8.2   -6.1    6.9
N    -1.0   -6.3  -10.5
H     2.1    3.7   11.6
H     8.5   -6.7    6.1
H    -5.2   -5.0  -10.0
H    10.0    1.7   -7.1
I     9.8    7.4   -1.4
H   -10.8   -4.9   -3.6
I    -6.3   -3.2   10.2
C     3.2    6.9   -9.9
H    10.7   -6.3    1.3
I     4.4   10.0   -6.0
N    -5.5    7.3   -8.5
H     7.0    2.9  -10.0
I    -4.5   10.0   -6.0
H     2.5  -10.1   -7.0
I    -6.6    3.3  -10.1
H    -8.5    6.6    6.3
I    -7.0  -10.2   -1.8
H    -0.9    5.3  -11.3
P    11.7   -2.5   -3.7
P    -4.2    8.8    7.9
H    -5.3   -9.1    6.9
H   -11.7   -3.2    3.4
C   -10.5   -5.4   -4.5
C   -10.4    5.6   -4.5
P    -7.9   -0.4    9.8
C    11.2    2.2   -5.4
C    -8.6    5.9    7.2
H   -10.5   -4.7   -5.3
I     6.9    6.9   -8.1
H   -11.4    3.8   -4.0
C     9.2   -5.0    7.2
I    10.7   -1.1    6.8
H    -1.0   -5.6  -11.3
P    -1.7   10.0   -7.7
P    -4.4   11.9    0.1
H    -5.2    5.9  -10.0
N    -9.5    4.8    6.9
I   -10.3    2.2   -7.2
P     4.5   11.9    0.1
I    -0.7   -8.5    9.5
P     4.7    8.8    7.9
I    -8.6   -8.4    4.5
H     8.8   -4.5    8.1
H    -7.1   -9.5   -4.8
I     8.3    2.4    9.5
I     2.3   -7.6  -10.1
H   -10.7    6.1   -3.6
H   -12.5   -2.9    1.1
I   -12.6   -2.2   -1.8
H    11.9    2.1    4.6
H    -9.0   -4.5    8.1
H    -6.9   -4.2  -10.1
I     0.2    0.3   12.9
H    -9.3   -6.7    6.1
I   -11.7   -0.6    5.7
H    -9.6    4.1    7.7
H    -2.0   -8.1  -10.0
H   -11.1    3.9   -5.6
H     9.3    6.6    6.3
H    -6.5   -8.5   -7.5
H     8.1   -6.8    7.7
N    11.0    1.8   -6.8
