         400
 sphere cut out from bulk 
P    -2.0    0.1   -0.0
I     0.1   -0.7    2.3
I    -0.4   -1.5   -2.2
I    -0.3    2.8   -0.6
H     2.7   -0.5    1.0
H     2.9    0.4   -1.2
H    -0.1    1.6    3.3
C     3.6   -0.0    0.7
N     3.7   -0.1   -0.8
H     0.6   -3.9    0.1
H     3.6   -1.1   -1.1
H     3.7    1.0    1.0
H    -1.1   -4.3   -0.1
N    -0.0    2.6    3.6
H     0.9    3.0    3.3
H    -0.8    3.1    3.2
I    -3.8   -2.5    0.6
I    -3.6    1.8    2.2
C    -0.2   -4.7    0.2
H     4.5   -0.6    1.1
H     4.6    0.3   -1.2
I    -4.2    1.0   -2.2
H    -2.3   -1.2    4.1
H    -2.6    4.2   -0.6
H     0.5    3.6   -3.3
H    -1.0    2.1   -4.4
H     0.7    1.7   -4.7
H    -0.1   -5.1    1.2
I     3.1    3.6    2.3
H    -3.6   -1.5   -3.6
P     1.6   -2.5    4.5
I     2.9    0.5   -4.5
N    -0.1    2.4   -4.9
P     1.6   -2.5   -4.6
I     3.7   -3.4   -2.2
H    -2.8   -3.1   -3.6
P     1.7    5.3   -0.0
I     3.2   -4.1    2.2
H    -3.9   -2.7    3.1
H     0.2   -5.4   -1.8
H    -4.2    3.8   -0.7
C     0.4    3.7   -4.4
C    -0.0    2.7    5.1
N     0.2   -5.8   -0.8
N    -3.5    4.6   -0.8
C    -3.3   -1.4    4.7
H     0.8    2.1    5.5
C    -3.7   -2.5   -3.9
H    -1.0    2.2    5.5
H    -4.0   -0.7    4.4
I     3.7    4.3   -2.2
I     4.0   -0.2    4.7
N    -3.7   -2.8    4.2
H    -3.5    4.9   -1.8
H     1.1   -6.2   -0.6
H    -3.0   -3.5    4.3
H    -0.2    2.4   -5.9
H    -0.4    4.4   -4.6
H     1.3    3.9   -4.9
H    -6.4    0.3   -1.2
I    -0.7   -4.7    4.5
H    -6.4   -0.6    1.1
H    -4.6   -3.0   -3.6
H     0.1    3.7    5.4
H    -0.5   -6.5   -0.7
H    -3.8    5.3    1.2
I    -0.5    6.3    2.2
H    -3.1   -1.5    5.7
H    -2.8   -2.2   -5.8
C    -3.8    5.7    0.2
I     0.1   -0.9    6.8
I    -0.5   -1.6   -6.8
I     0.3   -5.4   -4.4
N    -3.7   -2.6   -5.4
H    -3.0    6.5    0.1
I     6.7    1.0   -2.2
H    -4.6   -3.1    4.6
N    -7.3   -0.1   -0.8
C    -7.3   -0.0    0.7
P     5.3   -5.1   -0.0
I     0.1    7.0   -2.2
H    -7.2    1.0    1.0
I    -3.3    4.9   -4.4
I    -3.6   -6.1   -2.2
P     5.3    2.7    4.5
P     5.3    2.7   -4.6
H    -7.3   -1.1   -1.1
P    -5.6   -5.1   -0.0
I     7.1   -2.5    0.6
H    -4.5   -2.1   -5.8
P    -5.6    2.7    4.5
H    -3.7   -3.6   -5.8
P    -5.7    2.7   -4.6
H    -4.8    6.1   -0.1
H     6.7    3.8   -0.7
H     6.3   -3.0   -3.6
I     7.3    1.8    2.2
I    -3.5    1.9    6.8
I    -4.1    1.1   -6.8
H    -8.0    0.4   -1.2
H     3.2   -5.9   -4.6
H     7.0   -2.7    3.1
H     6.9   -0.7    4.4
H     3.8   -0.2    7.3
I    -7.2   -3.4   -2.2
I    -4.1   -6.7    2.3
I     3.3   -7.6   -0.6
H    -8.2   -0.5    1.0
H     7.3   -1.5   -3.6
I    -7.0   -0.2    4.7
H     2.8   -7.2    3.2
H     6.3   -3.1    4.6
I     3.3    3.7    6.8
I     3.7   -3.4   -6.8
I    -4.4    5.7    4.5
I     3.1   -4.1    6.9
H     4.2   -6.7   -3.3
H     3.5    0.1   -7.9
H     2.7    7.4   -3.6
I     3.5    7.9    0.6
C     7.3   -2.5   -3.9
H     6.1    6.1   -0.1
I    -7.2    4.3   -2.2
N     7.4    4.6   -0.8
N     7.2   -2.8    4.2
I    -0.2    2.7   -8.4
I     0.0   -8.6    2.2
I     3.7    4.4   -6.7
I    -7.8    3.6    2.3
H     3.4    7.6    3.1
C     4.0   -6.7   -4.4
P     8.9    0.1   -0.0
H     6.5   -2.1   -5.8
H     7.1    5.3    1.2
H     3.1   -1.3    8.3
I    -7.7   -4.1    2.2
H     2.7    7.3    4.6
P    -2.0   -7.6    4.5
C     7.7   -1.4    4.7
H     7.4    4.9   -1.8
H     0.1   -4.2   -8.1
C     7.1    5.7    0.2
N     3.8   -0.5    8.3
H    -0.8   -4.7    7.8
P    -2.0   -7.7   -4.6
H     4.3    6.9    4.3
H     4.5    7.2   -3.6
H     4.5   -7.3    3.3
I    -8.0    0.5   -4.5
P    -2.0    0.1    9.0
P    -2.0    0.1   -9.1
P    -2.0    7.9    4.5
N     3.6   -7.7    3.6
H     0.9   -4.9    7.9
I    -0.5    6.3    6.9
P    -2.0    7.9   -4.6
H    -0.0    9.3   -1.1
N     3.5    7.6    4.2
H     3.7   -6.6    5.4
H     8.4    4.2   -0.6
H     2.5    1.0    9.0
H     8.1   -3.1   -3.6
N     7.3   -2.6   -5.4
C     3.6    7.8   -3.9
H     4.9   -6.4   -4.9
H     2.5    0.9   -9.1
C     3.5    0.5   -8.9
H     3.6    6.8   -5.8
I    -0.5   -9.3   -2.2
H     8.6   -1.2    4.1
H    -2.8    4.5   -8.0
I    -4.0   -2.3    8.5
H    -3.7    4.1    7.9
I    -3.6   -5.9   -6.7
I     6.8    1.1   -6.8
H     8.0   -3.5    4.3
I     0.0    6.9   -6.8
H     4.7   -1.0    8.5
H     2.7   -8.3   -4.4
N     0.0   -5.2    8.2
I     6.5    5.7    4.5
I     7.4   -6.1   -2.2
H     7.8   -1.5    5.7
I     6.8   -6.7    2.3
H     0.9    9.8    1.1
C    -0.0   -5.3   -8.4
H    -0.9   -5.7   -8.0
C     3.5    0.6    9.2
H     7.2   -3.6   -5.8
H     0.9   -5.8   -8.0
C     3.6   -7.7    5.1
I    -4.0    8.8   -2.2
H    -0.9    9.9    1.0
H    -2.7    5.5    7.9
H     3.6   -8.7    3.3
H     4.2    1.3   -9.0
N     3.6   -8.0   -4.9
H    -6.0   -6.4   -4.9
I     7.6    4.9   -4.4
H    -3.6   -9.4    1.0
I    -0.2    2.7    9.7
H    -0.0   -6.2    7.9
H    -6.7   -6.7   -3.3
N     3.6    7.8   -5.4
H     4.3    1.3    9.1
H     2.7   -8.1    5.5
H    -7.1   -0.2    7.3
H     7.9    6.5    0.1
I     7.4    1.9    6.8
H     8.1   -2.2   -5.8
H     3.7    8.8   -3.6
H    -6.4   -7.3    3.3
N     0.0   10.3   -0.8
H     3.1   -1.4   -9.8
C    -0.0   10.3    0.7
H    -6.5    7.2   -3.6
H    -4.6    4.6   -8.0
I    -4.0   -6.7    6.8
N    -3.6    5.1    8.2
P     1.7  -10.3   -0.0
C    -3.7    5.1   -8.4
H     3.4   -8.0   -5.9
H    -6.6    6.9    4.3
H    -2.7  -10.1   -1.2
H     2.8    8.3   -5.8
I    -7.2   -3.4   -6.8
H    -6.2   -1.0    8.5
I    -3.6    9.6    2.3
N     3.8   -0.6   -9.8
C    -6.9   -6.7   -4.4
H    -4.4    5.6    7.8
P     1.7    5.3    9.0
P     1.6    5.2   -9.1
P    -9.3   -2.5    4.5
P    -9.3   -2.5   -4.6
P    -9.3    5.3   -0.0
H     9.8   -4.3   -0.1
I    -4.0   -2.4   -9.6
I    -7.6   -7.6   -0.6
H    -7.7   -5.9   -4.6
H     0.9   10.6   -1.2
H    -3.6    6.1   -8.1
H     4.7   -1.0   -9.6
H     4.3   -8.7   -4.7
H    -7.4    0.1   -7.9
C     4.0    8.9    4.7
I    -7.2    4.4   -6.7
H     3.5    0.2   10.2
I    -7.4    7.9    0.6
H     0.1   -4.1   10.0
H    -0.8   10.8   -1.2
I     0.1   -8.5    6.8
H     4.5   -8.3    5.5
I    -7.6    3.7    6.8
I    10.6   -1.5   -2.2
N    -7.1   -0.5    8.3
H    -4.4   -9.9   -1.2
H     4.5    8.2   -5.8
I    10.6    2.8   -0.6
H   -10.1    3.0    3.3
H   -10.3   -3.9    0.1
C     0.0   -5.2    9.7
C    -3.6  -10.4    0.7
H    10.1    3.1    3.2
H    10.0    2.1   -4.4
N    -3.6  -10.5   -0.8
H     3.2    9.6    4.4
I   -10.8   -0.7    2.3
I     0.3   10.1    4.7
H    -7.5    7.6    3.1
I    -7.8   -4.1    6.9
H     4.9    9.2    4.1
N     0.0   -5.3   -9.9
I     7.0   -2.3    8.5
H    -7.2   -6.6    5.4
H     6.3    4.6   -8.0
N    -7.3   -7.7    3.6
I    11.0   -0.7    2.3
H    -6.7    1.3   -9.0
H    -8.1   -7.2    3.2
I     0.1   -0.9  -11.3
H     4.2    8.8    5.7
H    -2.8  -11.0    1.1
N    -7.4    7.6    4.2
H    -6.7    1.3    9.1
H    -0.8   -4.8  -10.3
H     0.9   -4.9  -10.2
C    -7.3    7.8   -3.9
H     0.0   11.4    1.0
H   -10.3    1.7   -4.7
I     6.9    8.8   -2.2
H    10.8    1.6    3.3
H    -2.8    4.6   10.1
H     3.8   -0.3  -10.8
I    -0.5   -1.5   11.3
H   -10.4    3.6   -3.3
H     7.3    4.1    7.9
H    -6.2   -1.0   -9.6
H    -7.8   -1.3    8.3
H    -9.6    3.9   -4.9
I    -0.4   -9.3   -6.8
H    -7.4    6.8   -5.8
H    -3.7    4.1  -10.2
H    10.0    2.2    5.5
C    -7.4    0.5   -8.9
H    -0.9   -5.6   10.1
I   -11.3   -1.5   -2.2
H   -11.0    1.6    3.3
C    -3.6    5.2    9.7
I   -11.2    2.8   -0.6
I     7.4   -5.9   -6.7
H    -9.8   -6.2   -0.6
H    -8.3    7.4   -3.6
H     6.5    5.6    7.8
P     5.3   -5.1    9.0
N    -3.6    5.0   -9.9
H     0.9   -5.7   10.1
H   -10.1    2.1    5.5
P     5.3   -5.1   -9.1
P     5.3   10.4   -0.0
H    -6.0    9.2    4.1
I    -4.4   -9.9   -4.5
C    10.8   -4.7    0.2
P    -5.6   -5.1    9.0
C    -7.3   -7.7    5.1
I    -0.8   10.8   -4.5
N    10.9    2.6    3.6
I     6.9   -6.7    6.8
I    -4.2    8.7   -6.8
H    -4.6  -10.9    1.0
N   -10.9    2.6    3.6
H    -6.4   -8.3    5.5
P    -5.6   -5.1   -9.1
P    -5.6   10.4   -0.0
C    -7.4    0.6    9.2
H    -7.3   -8.7    3.3
H    -6.4    8.2   -5.8
H    -6.6   -8.7   -4.7
H    -2.7    5.4  -10.2
I     3.7  -11.1    2.3
N    -7.4   -8.0   -4.9
I     3.5   -7.7   -8.4
H    -0.4  -11.1    4.4
H     7.4   -9.4    1.0
H    -8.2    7.3    4.6
N    -7.3    7.8   -5.4
H     6.5   -9.9   -1.2
H    10.8   -5.1    1.2
I    -3.6    1.8  -11.3
H    -0.0   -6.3  -10.2
H    -7.2    8.8   -3.6
I     3.1   11.4   -2.2
C   -11.1   -4.7    0.2
C   -10.6    3.7   -4.4
I    -3.3  -10.6    4.7
H    -4.6    4.7   10.1
I    -4.1    1.1   11.3
H    -3.7  -11.4   -1.1
I    10.2   -4.7    4.5
N    10.8    2.4   -4.9
I     3.3    8.0    8.5
I     7.0   -2.4   -9.6
N     7.3    5.1    8.2
N    -7.1   -0.6   -9.8
H    11.5   -3.9    0.1
H   -10.8   -5.4   -1.8
C     7.3    5.1   -8.4
C    -6.9    8.9    4.7
I    -3.6    9.5    6.8
H   -11.1   -5.1    1.2
N   -10.8   -5.8   -0.8
H     8.1    4.5   -8.0
I     3.3    3.6  -11.3
N   -11.0    2.4   -4.9
H    10.4   -6.5   -0.7
H    10.5    4.4   -4.6
H    -0.5    9.0    8.3
C    10.9    2.7    5.1
H     1.3  -11.5    4.1
I     7.3    9.6    2.3
H    -3.6    6.2   10.0
I     3.7   -3.4   11.3
H    -8.4    1.0    9.0
I     3.1   -4.2  -11.2
C   -10.9    2.7    5.1
H     0.1  -11.9   -3.6
I    10.5    6.3    2.2
H    10.7    2.4   -5.9
H    -7.5   -8.0   -5.9
H    -0.2    2.5   12.2
H    -8.4    0.9   -9.1
H    11.1   -5.4   -1.8
H    11.5    3.6   -3.3
H    -8.2   -8.3   -4.4
H     0.1   10.1    7.3
H    -4.4    5.6  -10.3
H     7.3    6.1   -8.1
I    10.4   -1.6   -6.8
H    -6.7    8.8    5.7
N    11.1   -5.8   -0.8
