         400
 sphere cut out from bulk 
P    -0.1    0.1    1.5
I     2.3    0.3   -0.5
I    -1.2   -2.0   -0.7
I    -1.4    2.2   -0.5
P    -0.1    0.3   -2.7
I     1.1   -2.1    3.6
I     1.0    2.2    3.7
I    -2.5   -0.0    3.6
H     4.1   -1.8    0.4
H    -3.7   -2.6    0.7
H    -0.9   -3.9   -2.3
H     3.9    2.1   -1.3
H    -3.8    2.7   -1.2
H    -0.8    4.7    0.8
H    -4.3   -1.4    1.9
H     3.2   -3.0    2.5
C    -4.6   -2.2    1.2
I     1.2   -2.0   -4.7
H     1.0    5.1    0.8
C     4.7   -2.2    1.2
I     1.1    2.2   -4.8
I    -2.5    0.1   -4.8
H     0.3    4.5    3.0
H     0.0   -4.0   -3.7
N    -0.6   -4.5   -3.0
H     5.0   -1.4    1.9
C    -0.0    5.4    1.2
H    -5.2   -1.8    0.4
N     4.0   -3.3    1.9
N     4.6    2.9   -1.6
H     3.7   -4.0    1.2
H     1.1   -5.2   -1.9
P    -0.1   -0.0    5.7
N    -4.7    2.9   -1.6
H     4.2    3.8   -1.2
H    -5.4    2.1   -1.3
H     3.6    3.2   -3.5
H    -4.5    1.9   -3.5
N    -0.0    5.4    2.7
C     0.2   -5.7   -2.4
H    -1.4   -4.9   -3.5
H     0.3   -4.4    4.4
H     4.8    1.9   -3.5
C     4.6    2.9   -3.1
H     5.5    2.7   -1.2
H     5.6   -2.6    0.7
C    -4.7    2.9   -3.1
H    -0.4   -6.1   -1.6
H    -4.0    3.6   -3.4
H    -5.1    3.8   -1.2
H    -1.0    5.6    3.0
N    -5.3   -3.3    1.9
H    -0.3    6.5    0.8
H    -4.6   -3.8    2.6
H     4.7   -3.8    2.6
H     3.6    3.0    4.9
P    -0.1    0.2   -6.9
I     3.4   -5.9   -0.4
H     0.6    6.2    3.0
H    -4.5    1.7    5.0
I     3.5    6.0   -0.5
I    -7.0    0.3   -0.5
H    -5.6   -4.0    1.2
H     4.8    1.7    5.0
H     3.5   -2.0   -5.9
H    -1.0   -5.5    4.4
H     0.4   -6.4   -3.2
N    -0.1   -5.4    4.7
H    -4.0    3.4    4.9
H    -6.1   -3.0    2.5
H     5.3    3.6   -3.4
H    -5.7    3.2   -3.5
H    -4.3   -1.2   -5.9
C     4.5    2.7    5.3
H     0.6   -6.1    4.4
C    -4.7    2.7    5.3
I     6.8   -0.0    3.6
I    -3.5   -5.9    3.7
H     0.8    4.6   -6.3
H     5.0   -1.2   -5.9
I    -3.4    6.1    3.7
N     4.3   -1.7   -6.5
H     5.3    3.4    4.9
H    -0.9   -4.7    6.6
H    -5.7    3.0    4.9
I     7.8    2.2   -0.5
I    -3.4   -5.8   -4.6
I    -1.3   -2.1    7.8
C    -0.1   -5.4    6.2
I    -1.5    2.1    7.8
I     2.3    0.2    7.9
H     3.9   -1.1   -7.2
I     6.8    0.1   -4.8
H     0.9   -5.0    6.6
I    -2.2   -8.0   -0.5
H    -4.0   -3.6   -6.4
H     3.9    2.0    7.1
I    -5.9   -5.9   -0.4
I    -5.8    6.0   -0.5
N    -5.0   -1.7   -6.5
I     8.1   -2.0   -0.7
I    -3.4    6.2   -4.7
H    -5.8   -2.0   -5.9
I    -2.2    8.2   -0.5
H    -1.0    6.2   -5.8
H    -3.8    2.5    7.2
N     4.5    2.7    6.8
N    -4.8    2.7    6.8
C     0.3    5.2   -7.1
H    -0.5    4.7   -7.5
C    -4.4   -2.9   -7.2
H     4.2    3.7    7.1
H     5.3   -3.6   -6.4
H    -3.7   -2.6   -7.9
N    -0.3    6.4   -6.4
H    -5.4   -1.1   -7.2
H     0.5    6.9   -5.9
I     5.8   -5.9    3.7
C     4.9   -2.9   -7.2
I     2.2   -8.1    3.7
H    -0.3   -6.4    6.6
I     2.2    8.1    3.7
I    -8.2   -2.1    3.6
H    -5.4    2.0    7.1
I     2.5    0.3   -8.9
I    -1.1   -2.0   -9.0
I     5.9    6.1    3.7
I    -8.3    2.2    3.7
P     9.2    0.1    1.5
I    -1.3    2.2   -9.0
H     5.5    2.5    7.2
H     4.1   -3.4   -7.7
P    -4.6    8.1    1.6
P     4.7    8.1    1.6
P    -4.6   -8.1    1.6
I     5.9   -5.8   -4.6
H    -5.1    3.7    7.1
P     4.7   -8.1    1.6
H     8.4   -3.9   -2.3
P    -9.4    0.1    1.5
I     2.3   -8.0   -4.7
I    -8.1   -2.0   -4.7
P    -4.6   -8.0   -2.6
P     4.7   -8.0   -2.6
P     9.2    0.3   -2.7
H     1.0    5.5   -7.8
I     2.2    8.2   -4.7
I    -8.1    2.2   -4.8
P    -9.4    0.3   -2.7
P     4.6    8.2   -2.6
P    -4.7    8.2   -2.6
I     5.9    6.2   -4.7
H    -0.2   -9.7    0.8
H     8.5    4.7    0.8
H    -8.3    5.1    0.8
H    -5.2   -3.4   -7.7
H     7.9   -4.9   -3.5
H    -8.2   -5.2   -1.9
P    -0.3    0.0    9.9
H     5.6   -2.6   -7.9
H    -0.7    7.1   -7.1
H    -3.9   -2.7    8.9
H    -0.5   10.1   -1.6
N     8.7   -4.5   -3.0
H     0.4    9.8   -3.2
H    -0.7    4.5    9.3
H     3.7   -1.2    9.6
I     3.4    5.9    7.9
I     3.3   -6.1    7.9
H     8.3    5.6    3.0
H    -9.0    4.5    3.0
H     0.6  -10.0    3.0
H     3.9   -3.6    9.1
H     0.8    5.4    9.0
I    -7.0    0.2    7.9
H    -3.6    2.7   -9.6
I   -10.5   -2.0   -0.7
H     4.1    2.1   -9.7
I     7.1   -8.0   -0.5
H    -9.3   -4.0   -3.7
I     3.5  -10.2   -0.5
H     9.3   -4.0   -3.7
P     9.2   -0.0    5.7
C     0.2   10.5   -2.4
I     3.4   10.2   -0.4
I     7.1    8.2   -0.5
C     9.3    5.4    1.2
C    -0.0  -10.8    1.2
H     5.4   -2.7    8.9
C    -9.3    5.4    1.2
H     8.3   -5.5    4.4
H     8.8   -6.1   -1.6
H    -9.0   -4.4    4.4
I   -10.7    2.2   -0.5
H     0.5   -9.3   -5.9
C     0.1    5.1    9.7
C    -9.1   -5.7   -2.4
P     4.6   -8.1    5.8
H     0.6   10.1    4.4
P    -4.7   -8.1    5.8
P     4.6    8.1    5.8
H     9.6    4.5    3.0
P    -4.7    8.1    5.8
P    -9.4   -0.0    5.7
P     0.1    0.1  -11.1
H    -8.7    6.2    3.0
N     9.3    5.4    2.7
H    -1.0  -10.6    3.0
N    -0.0  -10.8    2.7
N    -9.3    5.4    2.7
C    -4.6   -3.0    9.6
H     1.0  -11.0    0.8
C     4.7   -3.0    9.6
H     9.0    6.5    0.8
H   -10.2   -3.9   -2.3
H    -5.6   -1.2    9.6
H   -10.1    4.7    0.8
H     1.1   10.9   -1.9
H    -5.4   -3.6    9.1
I    -6.8    0.3   -8.9
I    10.3    2.2    3.7
H    -5.2    2.1   -9.7
N     4.1   -1.8   10.3
H    -0.7   -4.5  -10.2
I     7.8    2.1    7.8
I    10.4   -2.1    3.6
H     4.4    3.8   -9.7
I     3.5   -5.9   -8.9
N    -9.9   -4.5   -3.0
I    -3.3  -10.1    3.7
C     9.5   -5.7   -2.4
H     1.1   -4.9  -10.2
H    -8.9   -6.4   -3.2
I     3.6    6.0   -8.9
I    -7.1   -8.1    3.7
N    -4.6    2.8  -10.0
I    -7.1    8.1    3.7
I     8.0   -2.1    7.8
P    -4.6   -7.9   -6.8
H     9.6   -4.4    4.4
P     4.7   -7.9   -6.8
H     0.6    4.5   10.5
N     4.7    2.8  -10.0
I    -5.9    5.9    7.9
I    -3.5   10.3    3.7
H    -4.9    3.8   -9.7
H     5.7    2.7   -9.6
P     9.2    0.2   -6.9
H    10.3    5.1    0.8
H    -0.8  -11.5    0.8
H    -8.7   -6.1    4.4
H    -8.5    4.6   -6.3
H    -1.0   10.7    4.4
I    -3.3  -10.0   -4.7
H    -9.6    6.5    0.8
I    -2.3   -8.0    8.0
P    -9.4    0.2   -6.9
I    -6.0   -6.1    7.9
H     3.3   -2.1   10.9
H    -1.0  -10.0   -5.8
H    -0.7   -9.1   -7.1
H    -9.7   -6.1   -1.6
H     8.4   -4.7    6.6
I    11.6    0.3   -0.5
P     4.6    8.3   -6.8
P    -4.7    8.3   -6.8
I    -7.0   -8.0   -4.7
I    -2.3    8.2    8.0
N    -5.2   -1.8   10.3
N     9.2   -5.4    4.7
I    10.5   -2.0   -4.7
I    10.4    2.2   -4.8
N    -0.3   -9.8   -6.4
I    -5.8  -10.2   -0.5
I    -7.1    8.2   -4.7
N    -9.4   -5.4    4.7
C     0.1   -5.2  -10.6
H    10.4   -5.2   -1.9
H     8.2    6.2   -5.8
H    -8.4   -5.0    6.6
H    -4.5   -1.3   10.8
N    -0.1   10.8    4.7
H    -4.2   -3.7   10.4
I    -5.9   10.2   -0.4
H    -0.3    9.8    6.6
I    -3.4   10.4   -4.6
H    -0.9    6.9    9.7
H    -1.4   11.3   -3.5
H     4.8   -1.3   10.8
H    -0.1   -6.2  -10.2
I    -2.1   -7.9   -8.8
N    -0.6   11.7   -3.0
H     9.9    6.2    3.0
H     9.7   -6.4   -3.2
H   -10.3    5.6    3.0
H     0.3  -11.7    3.0
N    -0.5    6.3   10.4
H     5.1   -3.7   10.4
I    -5.7    6.0   -8.9
I    -5.8   -5.9   -8.9
I     8.0    2.2   -9.0
I     0.9    2.1   12.0
I    -2.1    8.3   -8.8
I     1.0   -2.1   12.1
H   -10.7   -4.9   -3.5
I    -2.7   -0.0   12.0
I     5.9  -10.1    3.7
I     8.2   -2.0   -9.0
C     9.2   -5.4    6.2
I   -11.8   -0.0    3.6
I     5.8   10.3    3.7
H     9.9   -6.1    4.4
H     8.8    4.7   -7.5
C    -9.4   -5.4    6.2
H   -10.3   -5.5    4.4
C    -0.1   10.8    6.2
H     0.3   11.7    4.4
H    -0.9   12.3   -2.3
C    -9.0    5.2   -7.1
I     6.0  -10.0   -4.7
H    -8.3    5.5   -7.8
H    -1.3    6.0   11.0
H    -6.0   -2.1   10.9
H    -8.8    6.9   -5.9
C    -4.5    2.8  -11.5
I   -11.8    0.1   -4.8
H    10.1    4.6   -6.3
H    -4.3    1.8  -11.8
H     0.0   12.2   -3.7
H     3.7   12.2    1.2
I     5.8   10.4   -4.6
C     4.7    2.8  -11.5
N     9.0    6.4   -6.4
H     9.0   -6.4    6.6
H     3.8    3.1  -11.9
H     0.3    6.8   10.9
H    -3.8    3.5  -11.9
H   -10.2   -4.7    6.6
H     5.0    1.8  -11.8
C     9.6    5.2   -7.1
H     0.9   11.2    6.6
C     0.3  -11.0   -7.1
H    12.5   -3.0    2.5
H    10.2   -5.0    6.6
N     0.1   -5.2  -12.1
H     0.5   -4.3  -12.4
N    -9.6    6.4   -6.4
H     4.2  -12.4   -1.2
H    -9.8    4.7   -7.5
H     0.8  -11.6   -6.3
I     3.3   10.1    7.9
H     8.6    7.1   -7.1
H   -13.0   -2.6    0.7
H    -9.6   -6.4    6.6
H     1.0  -10.7   -7.8
H    -0.9   11.5    6.6
H     9.0   -9.7    0.8
I   -10.6   -2.1    7.8
H     9.7    6.9   -5.9
I     7.0   -8.0    8.0
H   -10.3    6.2   -5.8
I     1.2    2.3  -13.1
I    -2.3    0.1  -13.2
I     3.5  -10.3    7.9
H   -13.1    2.7   -1.2
I     7.0    8.2    8.0
H     8.6    4.5    9.3
H    -0.9   -9.3    9.7
I     1.3   -2.0  -13.2
P     9.0    0.0    9.9
H    -5.6   12.2    1.2
H    13.2    2.1   -1.3
H    -5.1  -12.4   -1.2
H    -8.5    5.4    9.0
I   -10.8    2.1    7.8
H    13.3   -1.8    0.4
H    -4.6   12.4    2.6
H    -5.5    3.1  -11.9
H     8.8   10.1   -1.6
H     4.7   12.4    2.6
H     5.5    3.5  -11.9
H    -0.8   -5.4  -12.4
H    -8.7  -10.0    3.0
H    -8.9    9.8   -3.2
H    -3.9  -12.6   -3.4
P     4.5   -8.1   10.0
N     4.0   12.9    1.9
P     4.4    8.1   10.0
H    -9.5   -9.7    0.8
H    13.0   -4.0    1.2
I     6.6   -0.0   12.0
H    12.9    3.2   -3.5
H    -0.2   -4.1   13.1
P    -4.8   -8.1   10.0
P    -9.6    0.0    9.9
P    -4.9    8.1   10.0
H    -0.5  -11.5   -7.5
H     0.8   -6.0  -12.4
H     3.2   13.2    2.5
H     8.3  -10.6    3.0
