         400
 sphere cut out from bulk 
I    -0.6   -0.2    1.8
H     1.3   -1.5   -1.3
H     0.7   -2.6    0.7
N     1.9   -2.1   -0.9
H     2.6   -1.5   -0.3
C     1.2   -3.1   -0.0
H    -2.5    1.3   -2.1
I     0.6   -0.2   -3.5
H     0.6   -3.7   -0.7
H    -2.0   -0.7   -3.3
H     2.5   -2.6   -1.7
H    -3.3   -0.9   -2.2
H     0.9   -0.9    4.0
P    -2.9    2.2    2.1
H     0.6    4.2    0.0
H     2.0   -3.8    0.4
N    -3.0   -0.5   -3.1
H     2.1    1.2    3.6
C    -3.1    1.0   -2.9
P    -3.0   -2.2    2.3
I     4.5   -0.1    0.3
I    -2.3    3.9   -0.5
I    -4.5   -0.1    0.3
I    -2.4   -3.9   -0.4
H     1.7    4.2   -1.4
C     1.5    4.6   -0.4
H     2.4    4.3    0.2
H     0.7    1.4    4.7
H    -2.8    1.5   -3.9
C     1.6    0.9    4.6
N     1.5   -0.5    4.7
H    -4.1    1.2   -2.7
H    -3.6   -0.8   -3.9
H     2.4   -1.0    4.7
I    -1.0    3.8    4.0
H     4.9    1.2   -2.7
H     1.1   -0.8    5.7
I    -1.1   -4.0    4.1
I    -3.8    0.0    4.5
I     3.4   -3.8    3.0
H     2.3    1.3    5.4
I     3.6    3.9    2.9
P     1.5    2.1   -5.6
H     5.7   -0.9   -2.2
N     1.5    6.1   -0.4
I     3.4   -3.8   -3.6
I    -1.1    3.8   -5.0
I     3.4    3.9   -3.8
P     1.5   -2.4   -5.8
I    -1.1   -4.1   -5.0
H     0.8    6.5   -1.1
H     1.3    6.5    0.5
H    -6.5   -1.5   -0.3
C     6.0    1.0   -2.9
H     5.5   -0.8   -3.9
N     6.1   -0.5   -3.1
P     6.1    2.2    2.1
P     6.1   -2.2    2.3
I     5.2    0.0    4.5
H     2.5    6.5   -0.7
P    -3.0   -5.6   -3.0
P    -3.0    5.5   -3.2
H     6.6    1.3   -2.1
H    -2.4   -6.6    1.2
I     3.9   -0.1   -6.0
H    -6.6   -2.6   -1.7
H    -3.2    1.1    6.5
I    -5.5    3.9    2.9
I    -5.6   -3.8    3.0
N    -7.1   -2.1   -0.9
P     1.5   -5.6    4.8
P     1.6    5.5    4.9
H     6.3    1.5   -3.9
H    -2.7   -6.4    3.0
H    -1.9    6.9    2.4
H    -3.3    6.7    1.4
I     0.0   -0.1   -7.7
I    -5.6   -3.8   -3.6
I     6.7   -3.9   -0.4
H    -2.1    3.3    6.7
C    -3.1   -6.9    2.1
H     7.1   -0.7   -3.3
I    -5.7    3.9   -3.8
I     6.8    3.9   -0.5
I    -5.1   -0.1   -6.0
H    -6.7    4.3    0.2
H    -7.0    1.2    3.6
H    -4.1   -6.6    1.9
H    -2.0    1.1    7.7
H    -7.1   -3.8    0.4
H    -7.8   -1.5   -1.3
I     0.1   -0.1    8.1
I     0.7    7.7    2.5
N    -2.9    7.2    2.3
H     1.8    6.2   -4.9
N    -2.9    1.5    7.4
I    -0.6    7.7   -2.7
H    -6.6   -1.0    4.7
H    -2.8   -4.3    6.4
I     0.6   -7.9    2.5
H    -2.1    1.1   -8.0
H    -3.5    6.9    3.1
I    -0.7   -7.9   -2.7
C    -7.8   -3.1   -0.0
H     5.0   -6.6    1.9
C    -2.9    3.0    7.4
H    -3.7    1.1   -7.6
H    -2.9    3.4   -7.3
H    -7.4    4.2   -1.4
H     0.9   -7.1   -4.8
I     8.5   -0.2    1.8
I     2.3    3.8    7.4
H    -3.9    3.3    7.0
P     6.0   -5.6   -3.0
H    -6.8    1.3    5.4
C    -7.4    0.9    4.6
P     6.0    5.5   -3.2
H    -8.4   -2.6    0.7
C    -7.5    4.6   -0.4
I     2.3   -4.1    7.5
H     0.4    6.5   -6.0
H     5.9    1.1    6.5
N    -7.6   -0.5    4.7
N    -3.0    1.5   -8.3
H    -3.6    1.1    8.1
I    -4.5    7.7   -1.2
H     5.8    6.7    1.4
I     4.6    7.7   -1.2
C     1.5    6.7   -5.8
H    -8.2   -0.9    4.0
H    -2.2   -4.4   -7.7
I     4.5   -7.9   -1.2
N    -3.0   -8.4    2.3
H     1.2   -9.1    0.5
I    -8.5   -0.2   -3.5
H    -2.0   -8.6    2.4
I    -4.6   -7.9   -1.2
H     0.8   -9.1   -1.1
H    -6.6    6.5   -0.7
C    -3.0   -4.7    7.4
H    -8.5   -3.7   -0.7
H     5.2    3.3    7.0
H     2.5   -7.1   -5.4
H    -2.4    9.0    1.2
I     2.2    3.7   -8.3
C    -3.0    3.0   -8.4
C     6.0   -6.9    2.1
H     5.4    1.1   -7.6
N     1.5   -7.4   -5.6
H    -2.1   -4.4    8.0
C    -3.0    8.7    2.1
H     5.6    6.9    3.1
H     2.4   -9.1   -0.7
H     6.6   -6.6    1.2
H    -2.8    3.4    8.4
H    -8.5    4.2    0.0
I     2.2   -4.1   -8.2
H     2.1    6.4   -6.7
H     1.1   -6.9   -6.5
H     6.4   -6.4    3.0
H    -3.4   -8.8    1.4
N     1.5   -9.5   -0.4
P    -7.6    2.1   -5.6
N    -7.5    6.1   -0.4
H    -8.4    1.4    4.7
N     6.1    7.2    2.3
H     1.0    8.4   -4.8
N     6.1    1.5    7.4
H    -3.9   -4.3    7.9
I     8.0   -4.0    4.1
I    -9.6   -0.2    1.8
I     8.1    3.8    4.0
P    -7.6   -2.4   -5.8
H    -8.0   -0.8    5.7
H    -3.3    1.1   -9.2
H    -4.0   -4.3   -7.9
H    -3.6   -8.6    3.1
H     5.5    1.1    8.1
H    -2.2    3.3   -9.0
H     6.2   -4.3    6.4
H    -2.1   -6.6    7.2
H    -2.6    9.2    3.0
C    -3.0   -4.7   -8.3
H    -4.0    9.0    1.9
N     1.6    8.2   -5.6
C     6.1    3.0    7.4
I     7.9    3.8   -5.0
H    -7.8    6.5    0.5
N    -3.0   -6.2    7.4
H    -3.7   -6.6    6.8
H     9.8   -2.6    0.7
H     1.0   -0.8  -10.1
I     3.9   -7.8    5.2
I     4.0    7.8    5.2
H    -4.0    3.3   -8.7
I    -4.0   -7.7   -5.3
H     6.2    3.4   -7.3
H     6.9    3.3    6.7
I     9.6   -0.2   -3.5
I     8.0   -4.1   -5.0
H     7.1    6.9    2.4
I     0.1    7.8    6.7
I    -3.9    7.9   -5.3
I    -0.0   -7.8    6.7
H     5.1   -4.3   -7.9
H     9.6   -3.7   -0.7
H     5.2   -4.3    7.9
P     1.6   -2.3   10.0
H     2.6    8.4   -5.4
N     6.1    1.5   -8.3
H    -3.3   -6.6   -7.4
P     1.6    2.1   10.1
H     5.0    9.0    1.9
P    -7.5    5.5    4.9
I     4.0   -0.0    9.7
H     7.1    1.1    7.7
H    10.3   -1.5   -1.3
H    -8.2    6.5   -1.1
P    -7.5   -5.6    4.8
H     9.7    4.2    0.0
N     6.1   -8.4    2.3
H     5.7   -8.8    1.4
I     5.1   -7.7   -5.3
I    -5.1    7.8    5.2
H     2.2    1.3  -10.3
H     5.1    3.3   -8.7
I    -5.1   -7.8    5.2
H     5.5   -8.6    3.1
C     1.4   -8.9   -5.8
H    -2.9   -4.4   -9.3
C     6.1   -4.7    7.4
H     1.7   -9.4   -4.9
H     7.0    1.1   -8.0
C     6.0    3.0   -8.4
H    -7.3    6.2   -4.9
H    10.0   -0.9    4.0
I    -6.8    3.8    7.4
C    10.3   -3.1   -0.0
I     5.1    7.9   -5.3
C     6.1    8.7    2.1
N    -3.1   -6.2   -8.3
H     5.3   -6.6    6.8
P    -3.0   10.0   -3.0
H     1.2    8.7   -6.5
H     9.7    1.4    4.7
I    -6.8   -4.1    7.5
H     0.3   -9.1   -6.0
H     5.8    1.1   -9.2
I    -5.1   -0.0    9.7
P    -3.1  -10.0   -3.2
H     6.3    3.4    8.4
H    -2.2   -6.6   -8.6
N     1.4   -0.6  -11.0
C     1.5  -11.0   -0.4
H    -3.2   -6.6    8.4
H     0.6    1.4  -11.0
H    -6.6   -7.1   -5.4
P     1.6   10.0    4.8
H     6.9   -4.4   -7.7
N    11.0   -2.1   -0.9
H     6.7    9.0    1.2
C     1.6    0.9  -11.1
C     6.0   -4.7   -8.3
P     1.5  -10.1    4.9
H    -6.7   -9.1   -0.7
H     2.2    6.5    9.1
H     2.4   -1.0  -11.1
H     0.5  -11.3    0.0
I    -6.9    3.7   -8.3
N     6.0   -6.2    7.4
I    -1.1    3.8   10.7
H     7.0   -8.6    2.4
H     5.7   -6.6   -7.4
I   -10.0    3.8    4.0
H     2.0   -9.1   -6.7
H     6.9   -4.4    8.0
I    -6.9   -4.1   -8.2
I    -1.0   -4.0   10.8
H   -11.0   -0.7   -3.3
H     2.3  -11.3    0.2
C    10.6    4.6   -0.4
H     1.6  -11.4   -1.4
N    10.6   -0.5    4.7
H     6.5    9.2    3.0
H     1.2   -6.9    9.3
H    -7.0    6.4   -6.7
H    10.1   -0.8    5.7
I    -8.4    7.7    2.5
H    10.7    4.2   -1.4
H    -2.0    9.0    7.2
I   -10.2   -4.0    4.1
H     0.5    6.5    9.7
C    -7.6    6.7   -5.8
C    10.7    0.9    4.6
H    11.1   -3.8    0.4
I     8.5    7.7   -2.7
H    11.6   -1.5   -0.3
H    -3.8   -6.6   -9.0
H   -11.5    1.3   -2.1
H    11.1    1.2    3.6
H     6.9    3.3   -9.0
H     0.8   -0.9  -11.8
H    -8.2   -7.1   -4.8
I    -8.4   -7.9    2.5
I    -9.0   -0.1   -7.7
I     8.4   -7.9   -2.7
H    -3.6    9.0    6.8
H     9.9    6.5   -1.1
I     9.1   -0.1   -7.7
I    -2.3   11.7   -0.4
I    -0.0    7.7   -9.0
H     0.6   11.9   -0.7
I    -3.9   -0.0  -11.3
I    -2.4  -11.7   -0.5
H    11.5   -2.6   -1.7
H     2.1   11.8    0.4
H    -6.5    8.4   -5.4
N     6.0   -6.2   -8.3
I    -0.1   -7.8   -9.0
H     7.0   -6.6    7.2
I   -10.2    3.8   -5.0
N    -7.6   -7.4   -5.6
H     6.1   -4.4   -9.3
H    -7.8   -9.1    0.5
I   -11.3    3.9   -0.5
I   -10.2   -4.1   -5.0
H    -3.3    9.0   -7.4
I    -9.0   -0.1    8.1
P     6.1   10.0   -3.0
C     1.5    6.7    9.9
P     6.0  -10.0   -3.2
I   -11.5   -3.9   -0.4
H     5.8   -6.6    8.4
P    10.6    2.1   -5.6
N    -7.6   -9.5   -0.4
H    11.4    4.3    0.2
I     9.2   -0.1    8.1
N    10.6    6.1   -0.4
H    10.4    6.5    0.5
P     1.5    5.5  -10.8
H    -2.7    1.5   11.9
P    10.5   -2.4   -5.8
I     0.6   -0.1   12.3
H     5.3   -6.6   -9.0
H     2.0    1.1  -12.1
I    -1.1    3.8  -11.7
N    -2.9    9.4    7.4
H    -7.9   -6.9   -6.5
H    -3.5   -0.8   11.8
I    -1.0   11.6    4.1
I    -1.2   -4.0  -11.6
H    -8.6    6.5   -6.0
P   -12.0    2.2    2.1
H    -8.3   -9.1   -1.1
I     5.2   -0.0  -11.3
P     1.4   -5.6  -11.0
N    -7.5    8.2   -5.6
H    -6.8    1.3  -10.3
N   -12.0   -0.5   -3.1
H    11.5   -1.0    4.7
P   -12.1   -2.2    2.3
I     3.5  -11.6    2.9
I    -1.0  -11.8    4.0
H     5.4    9.0    6.8
C     1.3   12.4   -0.0
H   -11.8    1.5   -3.9
C   -12.1    1.0   -2.9
H    -2.1    8.9   -8.6
I    -1.0   11.5   -5.0
I     3.5   11.7    3.0
N     1.6   -7.4   10.1
H   -12.4   -0.9   -2.2
I    -9.6    7.7   -2.7
H    -8.1    8.4   -4.8
H    -1.9   -0.7   12.5
H     1.9    6.2   10.8
H    11.4    1.3    5.4
I     9.8    7.7    2.5
P    -7.5   -2.3   10.0
H    -3.2    9.0    8.4
I     3.3  -11.7   -3.8
P    -7.5    2.1   10.1
I     9.7   -7.9    2.5
H     2.6   -7.1   10.3
H     1.3    8.7    9.3
I     3.5   11.8   -3.6
I    -9.7   -7.9   -2.7
H     6.9   -6.6   -8.6
H    -7.3   -9.4   -4.9
N    -3.0    9.4   -8.3
P    10.6   -5.6    4.8
I    -1.2  -11.8   -5.0
H    -8.1   -0.8  -10.1
H     9.5    6.5   -6.0
P    10.7    5.5    4.9
H    -6.7   -1.0  -11.1
N    -2.9   -0.5   12.6
H     5.8    9.0   -7.4
H     0.8   12.9    0.7
H     2.1   -9.1    9.1
