         400
 sphere cut out from bulk 
P    -0.3    0.6   -0.0
I     2.2   -1.5    0.6
I    -2.2   -2.0   -0.3
I     0.4    0.7   -3.1
I    -0.9    0.4    3.2
I     1.6    3.2    0.5
H     0.5   -3.0    1.9
H    -0.4   -2.2    3.1
I    -2.9    2.5   -0.5
H    -1.1   -3.2    1.9
N    -0.3   -3.1    2.6
H    -0.0    3.7   -2.4
H    -0.7   -3.8   -2.0
H     2.7    1.5    3.2
H    -3.2   -0.3   -3.1
H     3.8   -0.5    2.4
H     3.0    1.2   -3.2
H     4.0   -0.7   -2.2
H    -3.5   -0.1    3.2
H    -0.2    3.9    2.9
H     4.2    1.9    2.3
C     3.8    1.4    3.2
H    -4.4    1.6   -2.3
H     4.4    1.6   -2.3
N     4.0    1.1   -3.2
N     4.2   -0.0    3.2
H    -4.7   -0.7   -2.2
H     1.1   -3.7   -3.7
C    -0.6    4.5   -2.8
C    -4.3   -0.3   -3.1
H    -4.5    1.9    2.3
H    -1.6    4.1   -3.1
C    -0.6   -4.6   -2.8
C     4.5   -0.3   -3.1
C    -0.2   -4.3    3.5
H    -5.0   -0.5    2.4
H    -0.4   -3.3   -4.4
H     3.8   -0.5    4.0
N    -4.6   -0.0    3.2
N     0.1   -4.1   -4.0
H    -0.8    5.3   -2.0
P     4.1   -4.0    0.0
H     4.1   -0.8   -4.0
N    -4.7    1.1   -3.2
H     0.7   -4.2    4.1
H    -0.2   -5.2    2.9
H     0.0   -5.4   -2.4
C    -0.3    4.9    3.5
H    -1.1   -4.3    4.1
C    -5.0    1.4    3.2
H    -1.6   -5.0   -3.1
H    -4.3    1.6   -4.0
I     3.6   -3.9   -3.1
H     5.2   -0.1    3.2
H     4.2    1.9    4.1
P    -4.7   -4.0    0.0
I     1.6   -6.0    0.5
H     4.4    1.6   -4.0
H    -4.7   -0.8   -4.0
P    -0.2    0.6   -6.3
H    -1.2    6.0    1.9
H     5.5   -0.3   -3.1
H    -4.6    1.9    4.1
H     0.3    4.3   -4.7
P    -0.2    0.5    6.4
H     0.5    6.1    1.9
H    -5.0   -0.5    4.0
N     0.1    5.1   -4.0
H     0.6    5.0    4.1
H    -1.1    4.8    4.1
I     5.9    2.5   -0.5
I     2.3   -1.5    5.9
I    -2.1   -2.0   -5.8
P     4.1    5.1    0.0
N    -0.3    6.0    2.6
I    -4.0   -4.1    3.2
H     1.0    5.4   -3.7
H     0.3   -4.8   -4.7
H    -5.8    1.2   -3.2
I    -6.6   -1.5    0.6
I    -2.7    2.6   -5.8
I     6.6   -2.0   -0.3
P    -4.7    5.1    0.0
I     1.7    3.1    6.0
H    -6.1    1.5    3.2
I     4.8   -4.1    3.2
I     3.5    5.2   -3.1
I    -4.1    5.0    3.2
I    -2.8   -6.6   -0.5
I    -5.2   -3.9   -3.1
I     2.3   -1.4   -6.8
H    -0.5    5.8   -4.4
I    -2.1   -2.1    6.8
I    -2.2    7.1   -0.3
I     1.7    3.1   -6.6
H    -0.4    6.9    3.1
I     4.7    5.0    3.2
I    -2.7    2.5    6.9
I    -7.2    3.2    0.5
I     2.2    7.7    0.6
I    -5.3    5.2   -3.1
I     7.9    0.4    3.2
H     7.7   -3.2    1.9
P     8.5    0.6   -0.0
P    -0.2   -8.5   -0.0
P     4.2   -4.0   -6.3
P     4.2   -4.1    6.3
I     1.7   -6.1    6.0
H     2.8   -7.7    3.2
H     4.3   -7.3    2.3
P    -4.6   -4.0   -6.3
I     6.1    2.6   -5.8
P    -4.6   -4.1    6.3
H    -4.5   -7.3    2.3
H     7.2    4.1   -3.1
I    -6.5   -1.5    5.9
H    -0.4   -3.4    8.2
I    -8.4    0.7   -3.1
I     6.0   -6.6   -0.5
H    -4.3   -7.5   -2.3
H    -8.3   -3.0    1.9
I     0.5   -8.4   -3.1
H     4.5   -7.5   -2.3
H     0.3    4.3    8.0
H     3.1   -7.9   -3.2
P    -9.1    0.6   -0.0
I     1.7   -6.0   -6.6
P     4.2    5.1    6.3
I     6.7   -2.0   -5.8
I    -2.7   -6.6   -5.8
P     4.2    5.2   -6.3
H     8.1   -3.8   -2.0
C     3.9   -7.7    3.2
H     8.4   -2.2    3.1
P    -4.6    5.1    6.3
H    -7.7   -3.7   -3.7
H     7.2   -5.0   -3.1
H     4.3   -7.2    4.1
H     0.3   -4.9    8.0
I    -7.2   -6.0    0.5
P    -4.6    5.2   -6.3
I    -0.9   -8.8    3.2
N     8.5   -3.1    2.6
H     3.8   -0.4   -8.6
I    -2.1    7.1   -5.8
H    -4.5   -7.2    4.1
I     6.1    2.5    6.9
I    -0.9    0.4   -9.4
I    -6.5   -1.4   -6.8
N     4.1   -8.0   -3.2
H     0.7   -4.1   -8.6
H    -4.3   -7.5   -4.0
I     0.4    0.6    9.5
H     4.0    8.4   -2.2
H     4.1   -0.9    8.6
H    -1.1   -4.2   -8.6
N     0.1   -4.1    8.7
H     4.5   -7.5   -4.0
I     6.6    7.1   -0.3
C    -4.9   -7.7    3.2
H     3.8    8.6    2.4
H     7.7   -4.3    4.1
C     8.2    4.5   -2.8
P    -0.3    9.7   -0.0
I     9.2    0.7   -3.1
H     4.2    2.0   -8.6
H    -4.3    1.5    8.6
I     6.7   -2.1    6.8
H     1.1   -3.8    9.0
N    -4.7   -8.0   -3.2
H     8.8    3.7   -2.4
I    -7.1    3.1    6.0
H    -0.4   -2.1   -9.6
C     8.2   -4.6   -2.8
H     4.4    1.5    8.6
H     8.0    5.3   -2.0
H    -8.8    3.7   -2.4
H     8.6    3.9    2.9
H     7.6    6.0    1.9
H    -4.7   -0.9    8.6
I     2.2    7.6    5.9
H    -3.3    8.8   -3.1
I    -2.7   -6.6    6.9
H    -4.8    8.4   -2.2
H    -4.6    2.0   -8.6
H    -9.2   -2.2    3.1
H     7.6    4.8    4.1
H    -1.1    4.9   -8.6
N    -9.1   -3.1    2.6
H    -5.0   -0.4   -8.6
H     0.6    5.0   -8.6
H    -8.1   -4.2    4.1
H     9.3   -3.0    1.9
H     3.0    1.1    9.5
H     2.7    1.6   -9.5
H     8.4   -3.3   -4.4
I    -2.1    7.0    6.8
N     0.1    5.0    8.7
H    -0.5    5.8    8.2
I    -1.0    9.5    3.2
H    -3.2   -0.4    9.5
H    -3.5   -0.0   -9.4
C    -0.2   -4.2   -9.2
H     4.0    8.4   -4.0
I    -6.6    7.7    0.6
H    -7.8    5.4   -3.7
C     8.6   -4.3    3.5
H    -3.6    9.0    3.2
I    -7.1    3.1   -6.6
H    -6.0   -7.7    3.2
H    -9.0    3.9    2.9
H    -5.0    8.6    2.4
H     3.8    8.6    4.0
I    -9.7    0.4    3.2
H    -5.7   -7.9   -3.2
I     0.4    9.8   -3.1
C     3.8    1.5   -9.5
N     4.2    0.0   -9.5
N    -8.7   -4.1   -4.0
N     4.0    1.1    9.5
C    -4.4    8.9   -3.1
H    -8.2    5.0    4.1
C     4.4    8.9   -3.1
C     8.5    4.9    3.5
H    -3.5   -9.3    3.2
C    -0.3    4.9   -9.2
H    -4.8    8.4   -4.0
H    -9.5   -3.8   -2.0
C    -4.3   -0.4    9.5
H     8.6   -5.2    2.9
H    -3.2   -9.5   -3.1
H    -8.3    6.1    1.9
H    -1.6    4.1    9.5
H     1.0    5.4    9.0
N    -4.6    0.0   -9.5
C     4.5   -0.4    9.5
N     4.2    9.1    3.2
I     2.2    7.7   -6.8
N    -0.3   -3.0  -10.1
C    -9.0   -4.3    3.5
N     8.9   -4.1   -4.0
H    -0.2    4.0   -9.8
H    -9.9   -3.2    1.9
H    -8.8   -5.4   -2.4
N     4.3   -9.2    3.2
P    -0.2   -8.6   -6.3
P     8.6    0.6   -6.3
H     8.8   -5.4   -2.4
N    -4.7    1.1    9.5
H    -8.5    4.3   -4.7
H     3.9   -9.7    2.4
I     6.1   -6.6   -5.8
N     8.4    6.0    2.6
P     8.6    0.5    6.4
N    -4.6    9.1    3.2
N    -4.5   -9.2    3.2
H    -9.2   -3.3   -4.4
H    -9.0   -5.2    2.9
P    -0.2   -8.7    6.4
H    -5.0    8.6    4.0
H     5.2   -0.0   -9.4
C    -5.0    1.5   -9.5
C    -9.4    4.5   -2.8
H    -8.5   -4.8   -4.7
C    -4.3   -9.4   -3.1
C    -9.4   -4.6   -2.8
N    -8.7    5.1   -4.0
C    -0.6    4.4    9.9
I    10.3    3.2    0.5
C    -9.1    4.9    3.5
H     5.5    8.8   -3.1
I     2.3  -10.6    0.6
H     5.2    9.0    3.2
H    -0.0    3.6   10.3
I     3.6   -4.0    9.5
C     4.5   -9.4   -3.1
H    -1.6   -5.1    9.5
H     4.1   -9.9   -2.2
C    -0.6   -4.7    9.9
N     8.9    5.1   -4.0
H     3.8   -0.4  -10.3
P    -9.0    0.6   -6.3
H     5.5   -0.4    9.5
H    -0.2   -5.1   -9.8
I    -4.0   -4.0   -9.5
P    -9.0    0.5    6.4
H     8.3    5.8   -4.4
H     9.1    4.3   -4.7
H    -4.9   -9.7    2.4
H    -9.5    5.3   -2.0
I    -7.1   -6.1    6.0
I    11.0   -1.5    0.6
H     9.5   -4.2    4.1
H     0.5   -3.0  -10.7
H     3.9   -9.6    4.0
H     5.3   -9.3    3.2
H     9.9   -3.7   -3.7
H    -5.8    1.1    9.5
I   -11.0   -2.0   -0.3
H    -4.7   -9.9   -2.2
H     4.0   -0.8   10.4
H    -1.1   -3.1  -10.7
H     3.0   10.4   -3.2
N    -9.1    6.0    2.6
H     9.3    6.1    1.9
H     8.4    6.9    3.1
H     9.1   -4.8   -4.7
H    -4.4    1.6   10.3
I     6.1   -6.6    6.9
H     4.4    1.6   10.3
H    -0.7   -3.9   10.6
I     4.8   -4.0   -9.5
H    -6.1    1.6   -9.5
I     6.7    7.1   -5.8
I     3.5    5.2    9.5
I    -2.1  -11.2   -0.3
H     4.2    1.9  -10.4
H     2.7   10.6    3.2
I    -7.1   -6.0   -6.6
H     9.4    5.0    4.1
H     5.6   -9.5   -3.1
H    -5.0   -0.4  -10.3
H     4.1   -9.9   -4.0
H    -4.7   -0.8   10.4
N     4.0   10.3   -3.2
H    -4.5    1.9  -10.4
I    -4.1    5.1   -9.5
H    -9.9   -4.3    4.1
P    -0.3    9.6    6.4
H    -4.9   -9.6    4.0
P    -0.3    9.7   -6.3
I    -5.2   -4.0    9.5
H   -10.4    4.1   -3.1
C     3.8   10.5    3.2
I    -6.5    7.6    5.9
H     0.0   -5.5   10.3
H    -4.7   -9.9   -4.0
I     4.7    5.1   -9.5
H    -0.3  -11.4    3.1
H   -10.0    6.0    1.9
N    -4.8   10.3   -3.2
H    -9.9    4.8    4.1
H     9.8    5.4   -3.7
H    -9.3    5.8   -4.4
N    -0.3    6.1  -10.1
H    -0.8    5.2   10.6
I     6.7    7.0    6.8
H     4.4   10.8   -2.3
H    -4.4   10.8   -2.3
H    -0.4    7.0   -9.6
H   -10.3   -5.0   -3.1
I   -11.6    2.5   -0.5
H    -9.2    6.9    3.1
H     4.3   -7.2   -8.6
H     4.2   11.0    2.3
I    10.4   -6.0    0.5
I    -2.9   11.6   -0.5
I    -5.3    5.2    9.5
H    11.5    1.5    3.2
H    -4.5   -7.2   -8.6
P     8.6   -8.5   -0.0
C    -5.0   10.5    3.2
H    -4.6   11.0    2.3
I    -6.5    7.7   -6.8
H     8.4   -3.4    8.2
I     7.9   -8.8    3.2
H     7.7   -4.2   -8.6
I    -8.3   -8.4   -3.1
H    11.8    1.2   -3.2
I     7.8    0.4   -9.4
H    -4.3   -7.6    8.6
H     4.4   10.8   -4.0
H    -4.4   10.8   -4.0
H    -5.8   10.4   -3.2
H     0.6  -12.2    1.9
H     4.5   -7.6    8.6
H    -1.2    6.0  -10.7
I     2.2   -1.4  -12.1
I     2.3  -10.6    5.9
H     0.5    6.2  -10.7
I     1.5   12.3    0.5
H    -8.5    4.3    8.0
H    -7.7   -3.8    9.0
P    -9.0   -8.5   -0.0
H   -12.0   -0.3   -3.1
I    10.5    3.1    6.0
I    -6.5  -10.6    0.6
H     2.8   -7.6   -9.5
H     4.2   11.0    4.1
H     7.6    4.9   -8.6
H    -8.1   -4.1   -8.6
I   -10.9   -2.0   -5.8
H    -1.1  -12.3    1.9
N    -0.3  -12.3    2.6
H     4.0    8.3    8.6
H     7.2    4.1    9.5
H    -8.5   -4.9    8.0
H    -4.6   11.0    4.1
I    11.1   -1.5    5.9
H    -6.1   10.6    3.2
