         400
 sphere cut out from bulk 
P    -0.3    0.0    1.6
I     1.0   -2.1   -0.5
I     1.0    2.1   -0.5
P    -0.1    0.0   -2.6
I    -2.7   -0.0   -0.6
I     2.1    0.1    3.8
I    -1.4   -2.2    3.7
I    -1.7    2.0    3.7
H     3.4    3.0    0.8
H     0.3   -4.6    0.6
H     3.5   -2.8   -1.6
H    -4.1   -1.3   -2.2
H     0.6    4.4   -2.0
H     4.6    1.7    0.8
H    -4.7    1.7    0.8
H     3.7    1.9    3.0
H    -1.2   -4.4    2.5
I     2.3    0.1   -4.7
C     4.4    2.7    1.1
I    -1.3   -2.1   -4.7
I    -1.4    2.0   -4.8
H    -4.1    3.4    0.8
C     0.3   -5.3    1.4
H     4.1   -1.4   -3.5
H    -4.0    2.5    3.0
H    -0.7    4.5   -3.3
H    -3.7   -2.2   -3.6
H     1.0   -5.1    2.1
C    -4.9    2.7    1.1
N    -4.5   -1.9   -3.0
N     4.3    2.6    2.6
N    -1.1   -5.3    2.0
C     4.2   -3.1   -2.3
C     0.1    5.0   -2.8
H    -1.8   -5.3    1.2
P    -0.3   -0.1    5.8
H     5.2   -1.3   -2.2
H    -4.2   -3.7   -1.9
N     4.8   -1.9   -3.0
H     3.7   -3.7   -3.1
H     4.0    3.6    3.0
N    -4.9    2.6    2.6
H     5.2    3.4    0.8
H    -1.3    6.0   -1.5
C    -5.0   -3.1   -2.3
H    -5.2   -1.4   -3.5
H     0.4   -6.3    0.9
H     0.8    5.4   -3.6
H     5.1   -3.7   -1.9
H     5.3    2.5    3.0
H    -5.7   -2.8   -1.6
H    -5.6    1.9    3.0
H     4.0   -1.8    4.9
N    -0.5    6.2   -2.2
I     6.6   -0.0   -0.6
H    -5.9    3.0    0.8
H    -1.2   -6.0    2.6
P    -0.1   -0.0   -6.8
H    -1.0    4.6    5.0
H     3.9    2.0   -5.4
H     0.2    6.8   -1.6
I    -3.6    6.0   -0.5
H     5.6   -2.2   -3.6
H     3.5   -3.5    4.9
H    -4.0   -3.0    4.9
H    -5.3    3.6    3.0
I    -3.6   -6.1   -0.4
H    -3.8    2.6   -5.4
H     0.7    5.0    5.0
C     4.3   -2.8    5.3
H    -5.5   -3.7   -3.1
H    -5.2   -1.8    4.9
H    -0.9    6.9   -2.9
C    -0.3    5.3    5.4
H    -0.8   -4.7   -6.0
I     3.3    5.8    3.8
H     4.2    3.6   -5.4
C    -5.0   -2.8    5.3
H     5.3   -3.0    4.9
N     4.5    2.7   -5.8
I     3.2   -6.1    3.8
H     1.0   -5.1   -6.0
H    -5.4    2.0   -5.4
N    -4.8    2.7   -5.8
I    -7.2    0.1    3.8
H    -0.5    6.3    5.0
H     5.5    2.6   -5.4
I     0.7    2.1    7.9
I     2.0    8.0   -0.5
I     5.7    6.0   -0.5
I     1.0   -2.2    7.9
H    -5.1    3.6   -5.4
I     3.4    5.9   -4.7
I     5.7   -6.1   -0.4
C    -0.0   -5.4   -6.3
H     3.3   -2.6    7.1
H    -5.7   -3.5    4.9
I    -2.8   -0.3    7.9
I     3.3   -6.1   -4.7
I    -6.9    0.1   -4.7
H     0.1    4.4    7.2
I     2.1   -8.2   -0.5
N     4.3   -2.8    6.8
I    -8.2   -2.1   -0.5
I    -8.3    2.1   -0.5
H    -4.3   -2.0    7.1
N    -0.3    5.3    6.9
I     7.6    2.0    3.7
H    -0.3   -6.4   -6.0
N    -5.0   -2.8    6.8
H     4.9   -2.0    7.1
I     7.8   -2.2    3.7
H     3.5    3.0   -7.6
H    -4.4    1.7   -7.6
C     4.5    2.7   -7.3
C    -4.7    2.7   -7.3
P     9.0    0.0    1.6
I    -6.0    5.8    3.8
H    -1.2    5.5    7.2
H     4.8    1.7   -7.6
I     1.0    2.1   -8.9
I    -2.4   -8.0    3.8
P     4.3    8.0    1.7
I     1.2   -2.2   -8.9
H     7.5   -5.3    1.2
H    -4.0    3.5   -7.6
H    -4.6   -3.7    7.1
H     4.6   -3.7    7.1
I    -2.5   -0.2   -8.9
I    -2.4    8.2    3.8
H     0.4   -4.5   -8.2
I     7.8    2.0   -4.8
I    -6.1   -6.1    3.8
H     0.4    6.1    7.2
I     7.9   -2.1   -4.7
P     4.4   -8.2    1.7
H     8.1   -4.4    2.5
P     9.1    0.0   -2.6
P    -4.9    8.0    1.7
N     0.0   -5.4   -7.8
I    -2.2   -8.1   -4.6
I    -5.8    5.9   -4.7
P     4.4    8.1   -2.6
H     0.3   -9.4   -1.6
I    -2.3    8.1   -4.6
P     4.5   -8.1   -2.6
H    -5.9   -2.6    7.1
P    -9.5    0.0    1.6
I    -5.9   -6.1   -4.7
P    -4.9   -8.2    1.7
H     0.1   -4.5    8.6
P    -4.8   -8.1   -2.6
P    -9.4    0.0   -2.6
P    -4.8    8.1   -2.6
H    -0.8   -9.3   -2.9
H     5.3    3.5   -7.6
H     0.3    9.8    0.9
H    -8.2   -5.1    2.1
N     8.2   -5.3    2.0
H    -0.9   -5.6   -8.2
H    -8.7    4.4   -2.0
H    -5.7    3.0   -7.6
P    -0.4   -0.1   10.0
H    -8.9   -4.6    0.6
H     8.0    6.0   -1.5
H     3.3    2.9    9.2
H     8.6    4.5   -3.3
I     6.5   -0.3    7.9
N    -0.4  -10.0   -2.2
H     0.6   -6.2   -8.2
H    -1.2   -5.6    8.6
H     8.0   -6.0    2.6
H     4.6    1.7    9.2
H    -1.2  -10.2   -1.5
H    -4.7    1.7    9.2
I    10.2    2.1   -0.5
I    10.3   -2.1   -0.5
N    -0.2   -5.5    9.0
C    -9.0   -5.3    1.4
H     0.3    4.5   -9.6
I    -3.7   -5.9    7.9
H    -1.3   10.2    2.6
H    -8.4    5.4   -3.6
H     3.6   -2.6   -9.7
I    -3.6    6.1    8.0
P     8.9   -0.1    5.8
H     0.4   -6.2    8.6
H     9.6   -4.6    0.6
H    -4.2    3.4    9.2
H    -4.1   -2.0   -9.7
H     8.2    4.6    5.0
I    -3.7   10.1   -0.4
C     4.3    2.7    9.5
I    -7.3    8.0   -0.5
I    -3.5  -10.2   -0.5
C    -9.2    5.0   -2.8
P     4.4    8.0    5.8
H    -8.8   -6.3    0.9
I    -7.2   -8.2   -0.5
C     0.2   10.9    1.4
N     8.7    6.2   -2.2
P     4.5   -8.1    5.8
H     9.8    4.4   -2.0
C     9.4    5.0   -2.8
C     9.5   -5.3    1.4
P    -0.1   -0.0  -11.0
H     5.0    3.4    9.2
C    -5.0    2.7    9.5
H    -0.4   -9.9    5.0
P    -4.9    8.0    5.8
H    -1.9   10.9    1.2
H    -8.5    5.0    5.0
P    -4.8   -8.1    5.8
H    -1.0    5.6   -9.6
H     5.2   -2.0   -9.7
I     3.1   10.1    3.8
I    -3.4   -5.9   -8.9
N    -1.1   10.9    2.0
I     6.7   -0.2   -8.9
H     8.4    6.9   -2.9
P    -9.6   -0.1    5.8
H    -4.4   -3.7   -9.7
I     6.9   -8.0    3.8
I    -3.3    6.1   -8.8
I     6.8    8.2    3.8
H     1.0   11.1    2.1
N    -0.0    5.4   -9.9
H    -6.0    2.9    9.2
N     4.5   -2.7  -10.0
H     0.6    6.1   -9.6
H     8.5   -4.7   -6.0
P     9.1   -0.0   -6.8
I     5.6   -5.9    7.9
H   -10.0    4.5   -3.3
H    -8.3   -5.1   -6.0
H    -9.1    6.8   -1.6
N    -4.7   -2.7  -10.0
H     4.9   -3.7   -9.7
H     0.9  -10.8   -3.6
I     1.9    8.0    7.9
P    -4.6   -8.1   -6.7
H    -0.3    9.8   -6.0
H    -5.7   -2.6   -9.7
P     4.6    8.1   -6.7
I   -10.7   -2.2    3.7
P     4.7   -8.1   -6.7
I     5.7    6.1    8.0
C     0.2  -11.2   -2.8
P    -4.7    8.1   -6.7
I     3.4  -10.4    3.8
I     2.0   -8.2    7.9
I     5.6   10.1   -0.4
H   -10.5   -4.4    2.5
P    -9.4   -0.0   -6.8
H     9.7   -6.3    0.9
H     0.3   11.6    0.6
I     3.3   10.1   -4.7
I     7.0    8.1   -4.6
I     7.0   -8.1   -4.6
I    -8.3   -2.2    7.9
H    10.3   -5.1    2.1
I   -10.9    2.0    3.7
H     9.5    6.8   -1.6
I     5.8  -10.2   -0.5
C     9.0    5.3    5.4
N   -10.3   -5.3    2.0
I   -10.6   -2.1   -4.7
N    -9.8    6.2   -2.2
C    -0.3   -5.4   10.5
I    -8.5    2.1    7.9
H    -1.0   -4.7   10.8
I     3.5  -10.3   -4.7
I   -10.7    2.0   -4.8
H     8.8    6.3    5.0
I   -11.9   -0.0   -0.6
H     0.6  -11.8   -2.0
H    10.1    5.4   -3.6
I    11.4    0.1    3.8
H     0.7   -5.1   10.8
H     3.6    1.9   11.4
N     4.3    2.7   11.0
C    -0.2  -10.9    5.4
I     5.8   -5.9   -8.9
H     8.0    5.5    7.2
C    -9.5    5.3    5.4
H    -1.3   11.8    2.5
I     2.1    8.1   -8.9
I    -8.1   -2.2   -8.9
H    -0.6  -11.7   -3.3
H   -10.6    6.0   -1.5
I     2.2   -8.1   -8.9
H    10.0    5.0    5.0
H     0.8  -11.2    5.0
I     5.9    6.1   -8.8
I     2.1    0.0   12.1
I    -8.3    2.1   -8.9
I    -1.7    2.0   12.0
H   -10.3    4.6    5.0
H   -11.1   -5.3    1.2
H    -4.0    2.5   11.4
I    -6.2   10.1    3.8
H   -10.5   -6.0    2.6
I    -1.6   -2.1   12.1
N    -5.0    2.7   11.0
C     9.2   -5.4   -6.3
H     0.5  -10.1    7.2
C    -9.3   -5.4   -6.3
H    -9.2    4.4    7.2
I    11.6    0.1   -4.7
N     9.0    5.3    6.9
I    -5.9  -10.4    3.8
C    -0.1   10.8   -6.3
H     9.0   -6.4   -6.0
H     3.9    3.6   11.4
H     9.3    4.4    7.2
H    -0.5   -6.4   10.8
H   -10.2    6.9   -2.9
H   -10.1   -4.7   -6.0
C    -0.0    5.4  -11.4
H    -0.9  -11.6    5.0
H     0.9   11.1   -6.0
I    -6.0   10.1   -4.7
H    -9.8    6.3    5.0
C     4.5   -2.7  -11.5
H    -0.8    4.7  -11.8
I    -5.8  -10.3   -4.7
H     4.3   -1.7  -11.9
C    -4.7   -2.7  -11.5
H     5.2    2.5   11.4
H    -3.8   -3.0  -11.9
H    -5.6    1.9   11.4
N    -0.2  -10.9    6.9
H    10.2   -5.1   -6.0
H     1.0    5.1  -11.8
N    -9.5    5.3    6.9
H    -8.9   -4.5   -8.2
H     8.4   -9.3   -2.9
H     3.8   -3.4  -11.9
H    -9.5   -6.4   -6.0
I    10.0    2.1    7.9
H     8.3   -5.6   -8.2
H     0.6   10.0   -8.2
H    -1.1  -10.7    7.2
H    -8.9    6.1    7.2
H    -5.0   -1.7  -11.9
H    -0.9   11.5   -6.0
H    12.7    3.0    0.8
H     8.1   -5.6    8.6
H    -5.3    3.6   11.4
H     8.0  -10.2   -1.5
I    10.2   -2.2    7.9
H    -9.0   -9.4   -1.6
H     8.0   10.2    2.6
H    12.8   -2.8   -1.6
H     7.4   10.9    1.2
H     0.3   10.0    8.6
I     2.4    0.2  -13.1
N    -9.3   -5.4   -7.8
N     9.3   -5.4   -7.8
I    -1.4    2.1  -13.1
H    -8.9    9.8    0.9
N    -0.1   10.8   -7.8
H    -4.3   12.5   -1.9
H     3.6   12.5   -3.1
H    -9.1   -4.5    8.6
I    -3.5  -10.1    8.0
I    -1.2   -2.1  -13.1
P     8.9   -0.1   10.0
H    -8.6   -6.2   -8.2
H    -0.3    6.4  -11.8
H     9.6   -4.5   -8.2
H    12.9    1.9    3.0
H     5.5   -3.0  -11.9
H    -4.0  -12.8    0.8
H    -1.0   10.6   -8.2
I    -7.4    8.0    7.9
H     9.6    6.1    7.2
N     8.8  -10.0   -2.2
I    -3.7   10.3    7.9
H     9.4   -4.5    8.6
H     9.5   -9.4   -1.6
I    -7.3   -8.2    7.9
H    -5.5   -3.4  -11.9
H   -13.3   -1.3   -2.2
H     5.0   12.5   -1.9
H     4.1  -12.6    3.0
P     4.4    8.1   10.1
H   -13.0   -2.2   -3.6
H     3.5  -13.2    0.8
P     4.4   -8.1   10.1
H    -1.3   10.6    8.6
I    10.2    2.1   -8.9
N     8.1   10.9    2.0
H     9.6    9.8    0.9
I     3.2    5.9   12.1
I    -3.3  -10.1   -8.8
P    -4.9    8.1   10.1
I    11.3    8.0   -0.5
H   -13.4    3.4    0.8
H   -13.2    2.5    3.0
