         400
 sphere cut out from bulk 
H    -0.0   -1.9    0.1
I    -1.5   -0.7    1.6
H     1.6   -1.9   -0.3
N     0.7   -2.3   -0.6
H     0.4   -1.9   -1.5
H    -0.4    3.5    0.1
I    -0.3   -0.7   -3.5
H     1.3    3.5    0.3
I     3.7   -0.7    0.2
H     0.7    3.4   -1.4
C     0.5    3.8   -0.3
C     0.7   -3.8   -0.6
H     0.9   -4.1    0.5
H    -0.8   -0.7    4.1
H    -0.2   -4.2   -0.9
H    -2.8   -1.3   -3.1
H     1.6   -4.1   -1.2
H    -3.6    0.9   -2.7
H     1.4   -1.6    4.1
I    -3.4    3.2   -0.6
P    -4.0    1.6    2.0
H    -4.1   -1.3   -2.0
N    -3.9   -1.2   -3.0
H     3.9    0.4   -3.2
I     2.6    3.3    2.9
N    -0.4   -1.2    5.0
C     1.1   -1.2    5.0
H     1.4   -0.2    5.1
P    -3.9   -2.9    2.2
C    -4.2    0.2   -3.4
H    -0.8   -2.2    4.8
N     0.6    5.3   -0.4
I    -3.1   -4.5   -0.4
I    -2.0    3.2    4.0
I    -5.4   -0.7    0.2
H     5.0   -1.3   -2.0
I     2.3    3.5   -3.9
P     5.1    1.6    2.0
H     0.4    5.8    0.5
H    -0.1    5.7   -1.0
H    -3.9    0.4   -4.4
H     1.5    5.7   -0.7
H    -4.4   -1.8   -3.6
H    -0.8   -0.9    5.9
C     4.9    0.2   -3.4
P     0.4    1.6   -5.8
I     2.7   -4.6    2.9
N     5.2   -1.2   -3.0
H    -5.2    0.4   -3.2
H     4.7   -1.8   -3.6
H     5.5    0.9   -2.7
H     1.4   -1.8    5.8
I    -1.9   -4.4    4.1
P     5.2   -2.9    2.2
I    -4.5   -0.6    4.4
I     4.6   -0.6    4.4
I     2.9   -4.1   -3.9
I    -2.2    3.2   -5.1
P     0.7   -2.9   -5.9
I     5.7    3.2   -0.6
P     0.5    4.8    4.9
H    -3.5    5.6    1.9
H     5.2    0.4   -4.4
I     2.8   -0.4   -6.4
I    -1.7   -4.6   -5.0
P    -4.0    4.9   -3.2
H     6.3   -1.3   -3.1
H     1.2    5.6   -4.8
I     6.0   -4.5   -0.4
I    -0.3    7.1    2.4
I    -1.6    7.0   -2.6
H     4.0    6.0    2.6
P    -3.7   -6.0   -3.1
H    -7.5   -1.9   -0.3
I    -1.2   -0.5   -7.6
P     5.1    4.9   -3.2
H    -4.3    0.7    6.5
P     0.6   -6.2    4.7
I     7.6   -0.7    1.6
I    -6.5    3.3    2.9
C    -4.0    6.3    2.5
H    -3.3    3.0    6.7
I     3.5    7.1   -1.3
H    -3.6    6.3    3.5
H     4.8    0.7    6.5
H     5.6    5.6    1.9
H     0.3    7.0   -4.2
H    -2.8   -7.5    1.8
H    -5.1    6.0    2.6
I     1.1    3.3    7.6
N     0.9    6.6   -5.0
I    -6.2   -4.1   -3.9
I    -6.4   -4.6    2.9
I    -1.2   -0.6    8.3
H    -3.2    0.7    7.8
C     5.1    6.3    2.5
H    -7.8    3.5    0.3
H     4.1    3.0    6.9
N    -4.1    1.1    7.4
I    -6.8    3.5   -3.9
H    -2.9    7.9    1.8
P     5.4   -6.0   -3.1
I    -0.2   -8.3    2.4
H    -0.7    6.0   -6.2
H    -7.5   -4.1   -1.2
H    -4.4   -7.1    2.5
I     7.1    3.2    4.0
I     1.3   -4.5    7.4
N    -8.4   -2.3   -0.6
N    -3.9    7.6    1.9
C    -4.1    2.6    7.3
H    -4.3    7.6    1.0
H    -7.7   -1.6    4.1
H    -3.2    0.8   -8.2
H     4.7   -7.1    2.5
N    -3.9   -7.8    1.9
I    -6.3   -0.4   -6.4
H     1.8    7.1   -5.1
H    -4.3   -7.8    1.0
I    -1.5   -8.4   -2.6
H    -3.8   -4.9    6.5
H    -8.7   -1.9   -1.5
N     5.0    1.1    7.4
H     4.8    7.6    1.0
H     4.3    0.9   -7.9
H    -5.0    3.0    6.9
I     1.1    3.4   -8.4
H    -4.0    3.1   -7.6
H     5.5    6.3    3.5
H     4.3    0.8    8.0
I    -5.6    7.1   -1.3
I     3.6   -8.3   -1.3
C     0.2    6.6   -6.3
I     6.9    3.2   -5.1
H    -8.2   -4.1    0.5
C    -8.4   -3.8   -0.6
H    -8.4    3.4   -1.4
H     4.8   -7.8    1.0
H    -7.7   -0.2    5.1
C     5.0    2.6    7.3
H     9.1   -1.9    0.1
H    -4.8    0.9   -7.9
H     8.3   -0.7    4.1
H    -9.1   -1.9    0.1
I     2.8    7.1    5.4
H     8.7    3.5    0.1
H     5.8    3.0    6.7
I     7.2   -4.4    4.1
C    -8.6    3.8   -0.3
H    -4.8    0.8    8.0
N     5.2    7.6    1.9
H     0.4   -8.5   -4.2
H     0.9    6.2   -7.1
H    -7.6    5.7   -0.7
C    -8.0   -1.2    5.0
I     8.8   -0.7   -3.5
N    -4.1    1.2   -8.5
N     5.2   -7.8    1.9
H    -3.0   -4.8   -7.8
I    -1.2    7.1    6.5
H     5.1    3.1   -7.6
H     0.5   -9.7    0.5
H     5.3   -4.9    6.5
I     1.4   -4.4   -8.6
H    -4.0    3.0    8.4
H    -0.0   -9.7   -1.0
H    -4.4    8.3    2.5
H     5.9    0.7    7.8
H    -7.7   -1.8    5.8
H     9.5   -1.9   -1.5
H     8.9   -4.2   -0.9
H     4.7    8.3    2.5
H     8.3   -2.2    4.8
H     1.6   -9.7   -0.7
H     1.9   -8.3   -5.1
C    -4.1    2.7   -8.6
H     6.3   -7.5    1.8
C    -3.9   -5.2    7.6
I     2.8   -0.5    9.6
N     5.0    1.2   -8.5
H    -3.1   -4.9    8.2
N    -8.5    5.3   -0.4
I     4.4    7.3   -5.4
I    -9.4   -0.7   -3.5
I    -5.5   -8.3   -1.3
N     9.8   -2.3   -0.6
I     7.4   -4.6   -5.0
H    -0.0    7.7   -6.5
N     8.7   -1.2    5.0
H     0.0   -7.8   -6.5
N     0.7  -10.1   -0.4
H     5.9    0.8   -8.2
H    -0.8   -0.8  -10.1
H    -9.5    3.5    0.1
N     1.0   -8.8   -5.0
H     8.3   -0.9    5.9
I    -4.7    7.3   -5.4
H     6.2    7.9    1.8
H     4.3   -4.7   -8.0
H     4.2   -4.8    8.0
H    -3.2    3.0   -9.2
H     5.1    3.0    8.4
H    -9.3   -4.2   -0.9
C    -4.0   -9.1    2.5
P     0.4    1.5   10.2
I     2.9   -8.3    5.4
C     5.0    2.7   -8.6
H     1.4   -1.7  -10.1
H    -3.5   -9.1    3.5
C     9.6    3.8   -0.3
H     4.1    3.1   -9.0
H    -4.2    0.8   -9.5
P     0.6    9.3    4.7
H    -8.7    5.8    0.5
H     9.8    3.4   -1.4
H    -4.8   -4.7   -8.0
H    -4.9   -4.8    8.0
P     0.7   -2.9   10.1
C     5.2   -5.2    7.6
P    -8.7    1.6   -5.8
C     9.8   -3.8   -0.6
C    -3.9   -5.1   -8.4
H     4.1   -9.4    2.6
P    -3.8    9.4   -3.1
I    -1.2   -8.3    6.5
I     7.5    7.0   -2.6
H    -3.4   -9.9    1.9
H    -3.1   -7.1    7.2
P    -8.4   -2.9   -5.9
H     4.9    0.8   -9.5
I   -10.6   -0.7    1.6
I     4.4   -8.2   -5.4
H     9.0    5.7   -1.0
H    -9.9   -0.7    4.1
H    -5.0    3.1   -9.0
C     5.1   -9.1    2.5
H     4.3   -7.1    6.9
N    -9.5   -1.2    5.0
H    -7.9    5.6   -4.8
C     0.3   -8.8   -6.3
I    -4.7   -8.2   -5.4
H     0.8    6.1    8.9
H    10.0   -4.1    0.5
N    -4.0   -6.7    7.5
H    10.7   -1.9   -0.3
I    -6.3    7.1    5.4
H    -9.2    5.7   -1.0
H     1.4   -0.1  -10.9
P    -8.6    4.8    4.9
H    -4.8   -7.1    6.9
H     1.3   -9.8   -4.8
H     6.1   -4.8   -7.8
H    -5.0   -9.4    2.6
H    10.4    3.5    0.3
I     7.9   -0.5   -7.6
H    -4.2   -7.0   -7.5
N    -0.4   -1.1  -11.0
C     1.1   -1.1  -11.0
N     9.7    5.3   -0.4
C     5.2   -5.1   -8.4
H     9.5    5.8    0.5
H    -3.7   -4.8   -9.4
P     5.3    9.4   -3.1
H    -9.9   -2.2    4.8
H     5.6   -9.1    3.5
P     9.5    1.6   -5.8
H    -0.6   -9.4   -6.2
H    -0.3   11.2   -0.9
H     6.0   -4.9    8.2
N     5.1   -6.7    7.5
H    -0.7   -2.1  -11.1
H     0.9   11.3    0.5
H     4.9   -7.0   -7.5
H     5.9    3.0   -9.2
H    -7.3    7.1   -5.1
C    10.2   -1.2    5.0
I    -3.2   10.9   -0.4
N    -4.0   -6.6   -8.4
H    10.5   -1.6    4.1
H    -0.7    5.9    9.7
H    -3.2    8.3    7.2
I    -6.3   -0.5    9.6
H     1.5   11.3   -1.2
I     7.9   -0.6    8.3
H    10.7   -4.1   -1.2
P    -8.5   -6.2    4.7
I    -8.0    3.3    7.6
I    -2.2    3.1   10.9
H     5.7   -9.9    1.9
H    -9.9   -0.9    5.9
I     2.6   10.9    2.9
I    -7.8   -4.5    7.4
I     8.8    7.1    2.4
C     0.6  -11.6   -0.3
N    -8.2    6.6   -5.0
H     0.9   -9.2   -7.1
H    -3.1   -7.0   -8.7
I     7.6   -8.4   -2.6
C     0.7   11.6   -0.6
C     0.2    6.5    9.7
H     4.3    8.4    6.9
P    -3.9  -10.5   -3.2
H    10.5   -0.2    5.1
I    -6.2   -8.3    5.4
P     0.6  -10.6    4.9
H     6.0   -7.1    7.2
P     9.6    4.8    4.9
P     9.8   -2.9   -5.9
H    -4.2   -7.1    8.5
H     5.4   -4.8   -9.4
H    -0.7   -0.6  -11.8
N     5.1   -6.6   -8.4
H    -4.8    8.4    6.9
H    -0.4  -11.9    0.1
I    -2.0   11.0    4.1
H    -8.8    7.0   -4.2
I    -1.2    7.2   -9.5
I    -9.4    7.1    2.4
I    -1.7   -4.7   10.9
H    -4.2    8.4   -7.5
I    -8.0    3.4   -8.4
H     1.4  -12.0    0.3
I    -1.8   10.8   -5.0
H     8.4    6.0   -6.2
H     0.7  -12.0   -1.4
H    10.6    5.7   -0.7
H     1.5   -1.5  -11.9
H    -7.2   -8.3   -5.1
H     4.9   -7.1    8.5
H    -0.1    7.6    9.4
P     0.6    4.9  -11.1
P     5.2  -10.5   -3.2
H    10.5   -1.8    5.8
H    -3.9    0.3   11.5
H     4.4   -7.0   -9.0
N    -4.1    8.7    7.5
I   -11.1    3.2    4.0
H    -0.0   -7.8    9.4
H     4.9    8.4   -7.5
H    -7.5   -9.7   -0.7
I     2.9   11.3   -3.9
H    -4.7   -7.0   -9.0
I    -7.7   -4.4   -8.6
H   -11.9   -1.3   -3.1
I    -4.5   -0.5  -11.5
I     8.9   -8.3    2.4
I     7.9    7.1    6.5
I     4.6   -0.5  -11.5
I    -0.3   -0.8   12.4
P     9.7   -6.2    4.7
I     5.9   10.9   -0.4
I    11.7    3.3    2.9
H     9.4    7.0   -4.2
H     5.9    8.3    7.2
H    -8.2    6.2   -7.1
H    -3.1    8.4   -8.7
I   -11.0   -4.4    4.1
I    11.4    3.5   -3.9
H     1.2    5.5   11.2
I    -2.0    3.3  -12.0
N     5.0    8.7    7.5
I    -1.1   -8.2   -9.5
H    -4.3    8.3    8.5
I    -3.3  -12.2   -0.6
H     5.2    0.3   11.5
H    10.3    5.6   -4.8
I    -9.3   -8.3    2.4
I     2.3    3.4   12.1
I    -1.9   -4.3  -11.8
H     6.0   -7.0   -8.7
C    -8.9    6.6   -6.3
I     2.6  -12.1    2.9
N     0.9    6.5   10.9
P     0.7   -6.1  -11.2
I   -10.8   -4.6   -5.0
I     2.4  -11.9   -3.9
I    12.8   -0.7    0.2
H    -7.7   -1.7  -10.1
I   -10.3   -0.5   -7.6
I   -11.3    3.2   -5.1
H     4.8    8.3    8.5
H    -8.7   -8.5   -4.2
N    -4.0    8.8   -8.4
H     0.9   -9.3    8.9
I   -12.5    3.2   -0.6
I    11.8   -4.6    2.9
H    -8.6   -9.7    0.5
N    -8.1   -8.8   -5.0
I    -6.5   10.9    2.9
I   -12.2   -4.5   -0.4
H   -12.7    0.9   -2.7
H    -3.8   10.6    6.5
I   -10.7    7.0   -2.6
I    -2.0  -12.2    4.0
N    10.0    6.6   -5.0
C     9.3    6.6   -6.3
H    -9.8    6.0   -6.2
H     1.8    7.0   10.9
I     2.9   -4.2   12.1
I     2.9    7.2  -10.6
