         400
 sphere cut out from bulk 
P    -0.5   -0.1    0.7
I     0.8    2.0   -1.4
I     0.7   -2.3   -1.4
I    -2.8   -0.1   -1.4
I     2.0   -0.1    2.8
P    -0.4   -0.0   -3.5
I    -1.7    2.1    2.8
I    -1.8   -2.1    2.8
H     3.2    2.9   -0.1
H    -0.2   -4.5   -0.6
H     3.6    1.8    2.1
H     4.4    1.5   -0.1
H     2.8   -3.0   -2.6
P    -0.5   -0.1    4.9
C     4.2    2.6    0.3
H    -4.9    1.5   -0.1
H    -1.3   -4.7    1.7
H    -4.1    2.4    2.1
N     4.2    2.6    1.8
H     0.4    4.5   -2.7
H     3.5   -2.0    3.6
H    -4.3    3.3   -0.1
H     0.5   -5.1    1.6
N    -0.5   -5.4   -0.2
C    -0.5   -5.4    1.3
H     3.9    3.5    2.1
H     4.5   -1.4   -3.0
H    -0.7    4.3    3.6
C    -5.1    2.6    0.3
H    -1.5   -5.5   -0.6
H    -1.4    5.0   -2.7
H    -4.8   -1.4   -3.0
N     3.6   -3.3   -3.1
I     1.9    0.0   -5.6
H     5.0    3.3   -0.1
N    -5.1    2.6    1.8
H    -4.2   -2.5    3.5
C    -0.4    5.2   -3.0
H     5.2    2.4    2.1
H     0.1   -6.1   -0.6
C     4.4   -2.2   -3.8
H     3.8   -1.8   -4.6
I    -1.6   -2.2   -5.6
H     4.3   -3.9   -2.5
I    -1.7    2.1   -5.6
H    -4.0   -2.6   -4.2
N     4.2   -2.7    3.9
H    -5.7    1.8    2.1
H     3.9   -3.6    3.6
H     3.3   -4.0   -3.9
H     0.6    5.4    3.6
N    -0.4    5.3    3.9
C    -4.9   -2.2   -3.8
H    -0.7    4.4   -4.9
I     6.5   -0.1   -1.4
H    -0.8   -6.4    1.6
H    -6.1    2.9   -0.1
H     5.1   -2.5    3.5
H    -0.1    6.2   -2.7
H    -5.4    3.5    2.1
H    -5.0   -3.9   -2.5
N    -0.4    5.3   -4.5
N    -5.1   -2.7    3.9
H    -1.0    6.0    3.5
H    -5.8   -2.0    3.6
I     3.0    5.8    2.8
I    -3.9    5.8   -1.4
I    -3.9   -5.9   -1.4
H     5.3   -2.6   -4.2
I     3.1   -5.9    2.8
I     0.7    2.1    6.9
N    -5.7   -3.3   -3.1
H     3.2   -3.1    5.8
H     0.6    5.4   -4.9
I     0.8   -2.1    7.0
C     4.2   -2.7    5.4
H     4.4   -1.7    5.8
H    -5.5   -1.8   -4.6
H    -5.4   -3.6    3.6
H     0.4    4.7    5.8
I    -2.9   -0.1    7.0
H    -6.5   -3.0   -2.6
C    -0.4    5.3    5.4
P    -0.4   -0.1   -7.7
H    -4.9   -1.7    5.8
H    -1.4    5.0    5.8
I    -7.3   -0.1    2.8
H    -1.0    6.0   -4.9
H    -0.9   -4.5   -6.4
H    -4.3   -3.4    5.7
C    -5.1   -2.7    5.4
I     5.4    5.8   -1.4
I     5.4   -5.9   -1.4
H    -6.0   -4.0   -3.9
I     1.7   -7.9   -1.3
I     7.5   -2.1    2.8
H    -3.7    2.9   -6.9
H     5.0   -3.4    5.7
H     3.8    1.4   -7.3
I     7.6    2.1    2.8
I     1.9    8.1   -1.3
H     0.4   -5.6   -6.4
I     2.8   -5.9   -5.5
H    -0.2    6.4    5.7
I     3.0    5.8   -5.6
N    -0.5   -5.4   -6.8
I    -2.6    7.8    2.8
H     4.1    3.7   -6.7
I    -8.5    2.0   -1.4
P     8.8   -0.1    0.7
H    -6.1   -3.1    5.8
H    -1.2   -6.1   -6.4
I    -8.6   -2.3   -1.4
I    -6.3    5.8    2.8
P     4.3    7.9    0.8
I    -6.2   -5.9    2.8
P    -0.4   -0.1    9.1
P     4.2   -8.1    0.8
I    -2.7   -8.2    2.8
H    -5.2    3.7   -6.7
C     4.0    2.2   -8.1
I    -7.4    0.0   -5.6
N    -4.6    3.2   -7.4
H     5.6    2.9   -6.9
H    -5.5    1.4   -7.3
H     3.1    2.6    8.4
H     3.0    2.6   -8.4
N     4.7    3.2   -7.4
H     4.6    1.8    7.9
P    -5.0    7.9    0.8
H    -4.7    1.8    7.9
H     8.0   -4.7    1.7
H     0.3   -4.7    8.2
I     6.4   -0.1    7.0
P     8.9   -0.0   -3.5
H     7.8   -5.5   -0.6
P     4.3    7.9   -3.4
P    -5.1   -8.1    0.8
H    -1.5   -4.9    8.2
H    -0.6    9.6    1.6
I     7.6    2.1   -5.6
H     7.9    5.0   -2.7
P     4.1   -8.1   -3.4
H     0.3   -4.7   -8.6
P    -9.8   -0.1    0.7
I     7.7   -2.2   -5.6
C    -0.5   -5.3   -8.3
H     0.2    9.8   -0.6
C     4.0    2.2    8.8
C    -5.3    2.2   -8.1
H    -4.2    3.9   -8.1
P    -5.0    7.9   -3.4
I    -3.8    5.8    7.2
H    -1.5   -4.9   -8.6
I    -3.9   -6.0    7.0
I    -2.6    8.0   -5.6
C    -0.5   -5.3    8.6
P     8.8   -0.1    4.9
I     0.8   -2.1   -9.8
I     0.7    2.0   -9.9
H    -0.2   -9.8   -2.7
I    -2.8   -8.0   -5.6
H     9.1   -4.5   -0.6
H     4.6    1.8   -8.9
I    -2.9   -0.1   -9.8
H    -4.7    1.8   -8.9
P    -5.2   -8.1   -3.4
I    -6.3    5.8   -5.6
N     8.8   -5.4   -0.2
H     8.6    4.3    3.6
H     3.8    1.4    9.5
P     4.3    7.9    5.0
H     5.0    3.9   -8.1
H    -8.8   -5.1    1.6
P     4.1   -8.1    5.0
I    -6.5   -5.9   -5.5
H    -8.9    4.5   -2.7
P    -9.7   -0.0   -3.5
H    -0.4   -6.3    8.2
I    10.1    2.0   -1.4
C     8.8   -5.4    1.3
I    10.0   -2.3   -1.4
C    -5.3    2.2    8.8
H    -4.2    4.0    8.7
H    -9.5   -4.5   -0.6
H    -1.4   10.4   -0.6
N    -0.4   10.6   -0.2
P    -5.0    7.9    5.0
I     6.7    7.8    2.8
C    -0.4   10.6    1.3
H    -1.1  -10.0    3.5
I     5.4   -6.0    7.0
H    -0.4   -6.4   -8.6
I     5.5    5.8    7.2
H    -6.2    2.6    8.4
C     8.9    5.2   -3.0
P    -5.2   -8.1    5.0
H     8.6    4.4   -4.9
H    -6.3    2.6   -8.4
H     8.5   -6.4    1.6
I     1.9    8.0    7.1
I    -3.7   10.1   -1.4
I     1.7   -8.0    7.1
H     8.3    6.0    3.5
H    -8.7    5.4    3.6
H     5.1    4.0    8.7
I     6.6   -8.2    2.8
I     3.2   10.1    2.8
P    -9.8   -0.1    4.9
I     2.8  -10.2    2.8
N    -4.5    3.3    9.5
I    -4.0  -10.1   -1.4
H     0.6   10.9    1.6
H    -3.7    2.9    9.9
H     9.7    4.5   -2.7
H    -5.5    1.4    9.5
H     7.9    5.0    5.8
I    -7.6   -7.9   -1.3
N     4.8    3.3    9.5
I    -7.4    8.1   -1.3
N     8.9    5.3    3.9
H    -9.2   -6.1   -0.6
H     9.8   -5.1    1.6
H    -1.1  -10.0   -4.9
H     0.5  -10.6    3.6
H    -0.3   -9.6    5.7
C    -0.5  -10.8   -3.0
I    -8.5   -2.1    7.0
H     9.4   -6.1   -0.6
N    -9.8   -5.4   -0.2
I    -8.6    2.1    6.9
C    -9.8   -5.4    1.3
N     8.9    5.3   -4.5
H     8.3    6.0   -4.9
H    -8.7    5.4   -4.9
H    -0.8   -4.4   10.4
I     2.0    0.1   11.2
C    -9.7    5.2   -3.0
N    -0.5   -5.4   10.1
H     9.2    6.2   -2.7
N    -0.5  -10.7    3.9
H    -1.1   11.3    1.7
H    -1.5  -11.0   -2.7
H   -10.0    4.3    3.6
H     8.4   -4.5   -6.4
I    -1.7    2.1   11.2
I   -11.0    2.1    2.8
I     5.3  -10.1   -1.4
H    -0.1   11.5   -0.6
I    -1.5   -2.2   11.2
H     4.1    3.7   10.1
I     5.6   10.1   -1.4
H    -9.4    6.2   -2.7
I   -11.1   -2.1    2.8
H    -8.9    4.7    5.8
I    11.3   -0.1    2.8
N    -0.5  -10.7   -4.5
H     0.4  -10.6   -4.9
N    -9.7    5.3    3.9
H   -10.6   -4.7    1.7
I     6.4   -0.1   -9.8
C     8.9    5.3    5.4
I     6.5   -8.0   -5.6
H     5.6    2.9    9.9
P     4.1   -7.9   -7.7
P     8.9   -0.1   -7.7
I     6.7    8.0   -5.6
I     3.0   10.0   -5.5
H     0.2  -11.5   -2.7
H    -1.0    9.9   -6.4
H     0.4   -5.5   10.4
H     9.9    5.4    3.6
P     4.2    8.0   -7.7
P    -0.5   -0.1  -11.9
I     2.9  -10.1   -5.6
N    -9.7    5.3   -4.5
I    -3.9    5.8   -9.7
H     3.2   -3.1  -11.1
H     0.4    4.7  -11.0
C    -0.5  -10.6    5.4
H    -5.2    3.7   10.1
H   -10.0    4.4   -4.9
H     8.1   -6.1   -6.4
H     4.3   -1.7  -11.1
H   -10.1   -6.4    1.6
H   -10.7    5.0   -2.7
I    -6.1   10.1    2.8
I    -4.0   -6.0   -9.8
H    -1.2   -6.1   10.4
H   -10.8   -5.5   -0.6
H    -1.4    5.0  -11.0
P    -5.2   -7.9   -7.7
I   -12.1   -0.1   -1.4
P    -5.1    8.0   -7.7
H     0.6   10.4   -6.4
H    -5.0   -1.7  -11.1
H    -0.8  -11.7    3.6
H     9.7    4.7    5.8
H    -8.9   -5.6   -6.4
H     9.9    5.4   -4.9
N     8.8   -5.4   -6.8
C    -9.7    5.3    5.4
I    10.0    2.1    6.9
H    -4.3   -3.4  -11.1
H     7.8   -4.9    8.2
I    -6.5  -10.2    2.8
H   -10.3    6.0    3.5
I   -10.9   -2.2   -5.6
P    -9.7   -0.1   -7.7
I    10.1   -2.1    7.0
C     4.2   -2.8  -11.4
H    -1.5  -11.0    5.8
H     9.1    6.4    5.7
I     5.4    5.8   -9.7
I   -11.0    2.1   -5.6
I    11.2    0.0   -5.6
C    -0.4    5.3  -11.4
N    -0.4   10.6   -6.8
H     7.8   -4.9   -8.6
H     5.0   -3.4  -11.1
I     5.3   -6.0   -9.8
H    -0.9  -11.6   -4.9
H    -0.2    9.6    8.2
P     8.9   -0.1    9.1
H    -0.7    4.4   11.9
H     0.3  -11.3    5.8
I     1.8    8.0   -9.8
H    12.1   -3.0   -2.6
I     1.7   -8.0   -9.8
P     4.1   -7.9    9.1
H    -9.5    6.4    5.7
H    -0.2    6.4  -11.1
H   -10.2   -4.5   -6.4
C    -5.1   -2.8  -11.4
I    -3.8   10.0    7.0
H    12.5    2.9   -0.1
H     9.7   -5.6   -6.4
H   -10.3    6.0   -4.9
P     4.2    8.1    9.1
H     3.8   -1.8   12.2
H    -0.2    9.6   -8.6
I    -7.4    8.0    7.1
H    -6.1   -3.1  -11.1
H     8.7    9.6    1.6
I     3.0    5.9   11.2
I    -4.0  -10.2    7.2
H     3.5   12.0   -3.9
H    -9.0   -4.7    8.2
I    -6.3   10.0   -5.5
N    -9.8   -5.4   -6.8
I    -7.6   -8.0    7.1
H     0.6    5.4   11.9
H   -10.6    5.0    5.8
I     2.8   -5.9   11.4
H     7.9   10.4   -0.6
H     4.4   12.1   -2.5
C     8.8   -5.3   -8.3
P    -5.2   -7.9    9.1
H    12.9    1.8    2.1
I    -8.5   -2.1   -9.8
P    -5.1    8.1    9.1
H    -0.7   11.5   -6.4
H     3.7  -12.5    2.1
I    -6.4  -10.1   -5.6
I    -8.6    2.0   -9.9
P    -9.7   -0.1    9.1
P    -0.4    0.0   13.3
H    -9.0   -4.7   -8.6
H    -4.9   12.1   -2.5
C     8.8   -5.3    8.6
N    -0.4    5.3   12.3
H     8.2  -10.0    3.5
I    -7.3    0.1   11.2
H    -9.1    9.8   -0.6
H    -1.0    6.0   11.9
I     5.5   10.0    7.0
H     4.0   12.3    3.6
H     3.1  -13.1   -0.1
H    12.8   -2.0    3.6
C    -0.4   10.6   -8.3
H     9.6   -4.7    8.2
H    -4.5  -12.7   -0.1
H    -4.0   -2.6   12.6
I     5.3  -10.2    7.2
H    -5.5   -1.8   12.2
N     3.8   12.6   -3.1
H     3.0   13.0   -2.6
H     9.0   -9.8   -2.7
I    11.0   -7.9   -1.3
H     4.8  -12.7   -0.1
H     8.9   -6.3    8.2
C    -0.4   10.7    8.6
H     9.6   -4.7   -8.6
I     7.6    2.1   11.2
H     9.5    9.8   -0.6
N    12.9   -3.3   -3.1
H   -10.5   -6.1   -6.4
C    13.5    2.6    0.3
H     8.2  -10.0   -4.9
H     7.8  -11.0   -2.7
