         400
 sphere cut out from bulk 
I     1.3    0.1   -1.3
P    -1.1    2.0   -0.3
I    -1.2   -0.3    2.1
P     1.3   -2.2    1.0
I    -3.6    0.1   -1.3
I     1.3    3.6    1.1
I    -1.2   -3.8   -0.4
P     3.8    2.0   -0.2
I     3.8   -0.2    2.1
P    -3.7   -2.2    1.0
H    -1.2   -0.1    4.5
I    -1.1    3.5   -3.0
H     0.1    1.8   -4.5
H     1.0   -3.5   -3.3
H     2.3    0.8   -4.3
I    -3.6    3.6    1.0
H     0.1    0.2   -5.2
H    -3.6    0.2   -3.8
I     3.8   -3.7   -0.4
I     1.3   -3.7    3.7
N     0.5    1.2   -5.3
H    -1.2    4.5    2.8
N    -1.2   -0.0    5.6
C     2.0    1.2   -5.3
H    -0.3    3.9    4.2
H     2.2   -5.0   -1.9
H    -2.8   -0.3   -5.1
H    -0.3    0.5    5.9
C     1.3   -4.4   -3.7
H     2.9   -0.7    5.2
H     0.7   -5.6   -2.1
C    -1.2    4.4    3.9
I     3.8    3.7   -2.9
N    -3.7    0.2   -4.8
I    -1.1   -2.0   -5.6
H    -2.1    3.9    4.2
N     1.6   -5.4   -2.6
H    -0.2   -1.9    5.9
H    -2.0    0.5    5.9
H    -2.8    2.1   -5.1
H     2.3    2.2   -5.4
H    -3.0   -5.3   -1.8
H    -2.7   -4.2   -3.9
H     0.1    1.6   -6.2
I    -3.6   -3.7    3.7
I     6.3    0.1   -1.3
H     2.9    3.8    4.3
H     2.3   -4.3   -4.2
I    -6.1   -0.2    2.1
P    -6.1    2.0   -0.2
C    -1.1   -1.4    6.2
H     3.8    4.4    2.9
H     1.9    5.5   -2.9
H    -2.0   -1.9    5.9
H     2.3    0.6   -6.1
H     0.7    6.2   -2.1
H     0.6   -4.9   -4.4
H    -4.3   -3.9   -3.2
P     6.2   -2.2    1.0
H    -2.7    5.4   -3.0
C    -3.7    1.6   -5.4
H    -4.5   -0.4   -5.1
H    -0.3   -5.4    4.2
C    -3.6   -4.6   -3.6
I     1.3    2.3    6.4
C     3.7   -1.2    5.7
C     3.8    4.3    4.0
N     1.5    6.4   -2.6
H     4.7   -1.2    5.2
N    -3.4   -5.7   -2.6
I     3.8   -2.1   -5.6
I    -6.1   -3.7   -0.4
H    -2.0   -5.5    4.2
H    -4.6    2.1   -5.1
H     2.0   -6.3   -2.9
H     3.5   -2.2    6.0
H     6.2    0.2   -3.8
I     6.3    3.6    1.0
H    -3.0    6.5   -1.8
H     2.2    6.8   -1.9
H     4.7    3.8    4.3
N    -1.2    5.8    4.5
H    -4.3    5.6   -2.4
H    -5.2   -1.2    5.2
H     5.4   -0.4   -5.1
N    -3.4    6.1   -2.6
H    -1.1   -1.3    7.3
H     5.6   -3.9   -3.2
H     3.0   -5.5    4.2
H    -2.7   -6.4   -3.0
N    -1.1   -6.0    4.5
H     5.3    2.1   -5.1
H    -0.4    6.4    4.2
I    -6.0    3.7   -2.9
H    -3.7    1.5   -6.5
I    -3.7    2.2    6.4
H    -5.2    3.8    4.3
H    -1.1   -7.3    2.8
H    -4.2   -6.2   -2.4
H    -2.0    6.3    4.2
N     6.2    0.2   -4.8
H    -4.1   -5.1   -4.5
H     4.2    0.5    6.8
H    -6.1    4.4    2.9
N     3.9   -0.5    7.0
H    -1.2    5.7    5.6
H     2.9    6.3    4.2
I    -1.2    8.0   -0.4
I     6.2   -3.7    3.7
H     3.0   -0.5    7.6
N     3.8    5.7    4.5
H     0.6    6.9   -4.4
H     5.6    5.6   -2.4
H    -1.1   -6.1    5.6
H     4.6   -5.5    4.2
C     1.3    7.4   -3.7
C     6.2    1.6   -5.4
I     1.3   -8.2    1.1
C    -1.1   -7.4    3.9
N     3.8   -6.1    4.5
C    -6.1    4.3    4.0
C    -6.2   -1.2    5.7
I    -6.0   -2.1   -5.6
C     6.2   -4.6   -3.6
I    -1.1    2.5   -8.2
I    -8.6    0.1   -1.3
H    -6.9   -0.7    5.2
H     5.6   -6.2   -2.4
H    -5.3   -5.5    4.2
H     7.0   -0.3   -5.1
H    -7.6    0.8   -4.3
H     3.8   -7.4    2.9
H     3.7    5.7    5.6
H     4.6    6.3    4.2
C    -3.7    7.2   -3.6
I    -1.0   -8.3   -3.0
H     6.9   -5.3   -1.8
P    -8.6   -2.2    1.0
H     2.3    7.5   -4.2
H     5.8   -5.1   -4.5
I     3.7    8.1   -0.4
H    -5.7    0.5    6.8
H    -0.2   -7.9    4.2
H     4.7   -0.9    7.6
I     8.7   -0.3    2.1
H     0.9    8.3   -3.3
H     7.1    2.1   -5.1
P     8.7    2.0   -0.3
I     1.3    8.1    3.7
H    -2.7    7.6   -3.9
N     6.5   -5.7   -2.6
I    -3.6   -8.2    1.0
H    -6.4   -2.2    6.0
H    -7.0    3.8    4.3
H     3.8   -6.1    5.6
H    -4.1    6.7   -4.5
H     6.2    1.5   -6.5
P    -1.1   -3.6   -8.3
H     7.2   -4.2   -3.9
H    -2.0   -7.9    4.2
I     6.2    2.2    6.4
H    -5.3    6.3    4.2
N    -6.0   -0.5    7.0
C     3.8   -7.5    4.0
I     1.4   -5.5   -7.3
H    -5.2   -0.9    7.6
N     6.5    6.1   -2.6
H    -7.6   -5.0   -1.9
I    -8.6    3.6    1.1
I     1.4   -2.2    9.0
I     3.9   -8.1   -2.9
H     7.1    5.4   -3.0
I     8.7   -3.8   -0.4
I     3.9    2.4   -8.3
N    -6.1    5.7    4.5
H     2.9   -8.0    4.3
H    -7.6    2.2   -5.4
C    -7.9    1.2   -5.3
H    -4.3    7.9   -3.2
I    -3.7    8.1    3.7
H     6.9    6.5   -1.8
H    -7.6   -4.3   -4.2
H     7.8    3.9    4.2
I     1.4    6.3   -7.3
N    -6.1   -6.1    4.5
H    -7.6    0.6   -6.1
P     1.3    9.6    1.0
H    -6.9   -5.5    4.2
I    -3.5   -5.5   -7.3
H     8.7   -0.1    4.5
H     7.9    0.5    5.9
P    -1.1   -9.8   -0.3
P     3.9   -3.6   -8.3
H     5.7    6.7   -4.5
I    -1.2    5.7    8.0
I     8.8    3.5   -3.0
P     1.3    3.8    9.1
H    -6.1   -7.4    2.9
H     7.8   -1.9    5.9
I    -3.6   -2.3    9.0
I    -8.6   -3.7    3.7
H    -6.1    5.7    5.6
I     1.4   -2.1   -9.7
H     7.2   -6.4   -3.0
H    -7.9    5.5   -2.9
I    -1.1   -6.1    8.0
H    -8.9   -3.5   -3.3
I    -6.1    8.1   -0.4
C     6.2    7.2   -3.6
H     5.5    7.9   -3.2
H     4.7   -8.0    4.3
H     8.7    4.5    2.8
I    -3.5    6.3   -7.3
H    -6.9   -0.5    7.6
N    -8.3   -5.4   -2.6
H    -6.1   -6.1    5.6
H    -6.9    6.3    4.2
C    -8.5   -4.4   -3.7
P    -3.7    9.6    1.0
N     8.7   -0.0    5.6
C    -6.1   -7.5    4.0
H    -7.7    6.8   -1.9
I     6.3   -8.2    1.0
H    -5.2   -8.0    4.3
P     3.8   -9.8   -0.2
P     1.4    4.0   -9.6
I    -6.0   -8.1   -2.9
H     7.9   -5.5    4.2
C     8.7    4.4    3.9
H    -7.9   -6.3   -2.9
P    -3.6    3.8    9.1
I    -6.0    2.4   -8.3
I    -3.6   -2.1   -9.7
I     3.8    5.7    8.0
I     8.8   -2.0   -5.6
I     3.8   -6.1    8.0
C     8.7   -1.4    6.2
I    -1.2    2.3   10.5
N    -8.4    6.4   -2.6
N    -9.4    1.2   -5.3
I     6.2    8.1    3.7
P    -6.0   -3.6   -8.3
H    -9.8    1.8   -4.5
I    -8.6    2.3    6.4
H     7.9    6.3    4.2
H    -9.2   -5.6   -2.1
P    -3.5    4.0   -9.6
H     0.1  -10.0   -4.5
H    -9.8    0.2   -5.2
H    10.0    1.8   -4.5
P    -1.1   -3.7   10.4
I     6.4   -5.5   -7.3
H     7.2    7.6   -3.9
P   -11.0    2.0   -0.3
I     6.2   -2.3    9.0
H     9.6    3.9    4.2
H     9.5    0.5    5.9
I   -11.0   -0.3    2.1
H     2.3   -9.6   -5.4
H    10.0    0.2   -5.2
H    -2.8   -9.7   -5.1
I    11.2    0.1   -1.3
H    -9.2    6.2   -2.1
I     3.8    2.3   10.4
H    -9.3   -4.9   -4.4
N     8.7    5.8    4.5
I    -1.1    9.8   -5.6
P    11.2   -2.2    1.0
H    -7.0   -8.0    4.3
H     8.7   -1.3    7.3
H     9.6   -1.9    5.9
P     6.2    9.6    1.0
P    -6.1   -9.8   -0.2
H    -7.6    7.5   -4.2
I     6.3    6.3   -7.3
H    -0.3    9.9    5.9
N     8.7   -6.0    4.5
H    -1.1   -1.1  -11.4
H     3.1   -0.3  -11.1
I     1.3   -9.5    6.4
I    -6.1    5.7    8.0
H   -10.1    3.9    4.2
H    -9.8    1.6   -6.2
N    10.3    1.2   -5.3
H    -2.1    9.9    5.9
I   -11.1   -3.8   -0.4
H     8.7   -7.3    2.8
P     6.3    3.8    9.1
P     3.8   -3.8   10.4
I    -6.1   -6.1    8.0
I     6.3   -2.1   -9.7
P    -1.1    8.2   -8.3
H     9.6   -5.4    4.2
I    -1.2   11.5    2.1
I    11.2    3.6    1.1
H   -10.2    0.5    5.9
H     3.4    9.6    6.0
H     8.7    5.7    5.6
I     3.8    9.7   -5.6
I     8.7    8.0   -0.4
I     1.3  -11.7   -1.3
H    10.8   -3.5   -3.3
H    10.0    1.6   -6.2
N     0.5  -10.6   -5.3
H   -10.1   -1.9    5.9
C    -8.6    7.4   -3.7
I   -10.9    3.5   -3.0
H    -4.6   -9.7   -5.1
H     7.8   -7.9    4.2
I    -8.5   -8.2    1.1
H   -11.0   -0.1    4.5
H     0.1  -10.2   -6.2
H     8.7   -6.1    5.6
C     2.0  -10.6   -5.3
I     1.3   11.9   -1.3
H     2.3  -11.0   -4.3
C     8.7   -7.4    3.9
I    -3.6   -9.6    6.4
H     4.7   -0.7  -11.1
H    10.6   -5.6   -2.1
C    -3.7  -10.2   -5.4
P     6.3    4.0   -9.6
H     5.3   -9.7   -5.1
C    -1.2   10.4    6.2
H     9.5    6.4    4.2
P     1.3   -8.0    9.1
P     3.8    8.2   -8.3
H   -11.0    4.5    2.8
H    -5.1   -0.7  -11.1
I    -1.1   -5.9  -10.7
I    -6.1    2.3   10.4
I    -1.1  -12.1    2.1
I     8.8    2.5   -8.2
I    -1.1    5.9  -10.7
I    -3.6  -11.7   -1.3
H   -10.2   -5.4    4.2
I     3.8   11.6    2.1
I    -8.6    8.1    3.7
H    10.5   -4.9   -4.4
I    11.2   -3.7    3.7
N     4.0   -0.3  -11.7
N   -11.0   -0.0    5.6
H    -9.3    6.9   -4.4
H    10.5    6.2   -2.1
P     1.4   -7.8   -9.6
I     8.8   -8.3   -3.0
I    -1.0   -9.3   -8.2
I    -8.5   -5.5   -7.3
I   -11.0   -2.0   -5.6
C   -11.0    4.4    3.9
I    -3.6   11.9   -1.3
H     2.9   11.1    5.2
I    -8.5   -2.2    9.0
H    -1.2   11.7    4.5
C     3.7   10.6    5.7
C    11.2   -4.4   -3.7
H     0.0    1.4   12.5
I     1.4    2.4  -12.3
C    -1.1   -1.2  -12.5
H    -8.9    8.3   -3.3
H     4.2    0.7  -11.9
P     8.8   -3.6   -8.3
P    -3.6   -8.0    9.1
P    -6.1   -3.8   10.4
H    -3.6  -11.5   -3.8
H    -0.3  -11.3    5.9
H     0.2  -11.6   -5.2
H     4.6   10.6    5.2
I    -6.1    9.7   -5.6
C   -11.0   -1.4    6.2
H    -3.7  -10.3   -6.5
H   -10.2    6.4    4.2
H    -1.1  -11.9    4.5
I     3.8  -12.0    2.1
I     3.9   -5.9  -10.7
I     3.9    5.9  -10.7
H     2.2    0.4   12.6
H    -3.8    1.3   12.2
I    -8.5    6.3   -7.3
I     1.3   -5.7   11.4
H    -2.0  -11.3    5.9
P    -3.5   -7.8   -9.6
H    -1.2   10.5    7.3
H    -2.9   11.5   -5.1
H    -0.3    0.7  -12.9
N    11.4   -5.4   -2.6
H    12.2    0.8   -4.3
H    -5.2   10.6    5.2
P    -8.6    9.6    1.0
H    -0.2   -1.7  -12.8
H    -6.4    9.6    6.0
H     2.3  -11.2   -6.1
C    11.8    1.2   -5.3
I     1.3    6.1   11.4
H     7.1   -9.7   -5.1
H    -1.9    0.7  -12.9
I    -3.6    2.4  -12.3
H    -6.8   -0.3  -11.1
I    -8.4   -2.1   -9.7
N    -3.6  -11.6   -4.8
