         400
 sphere cut out from bulk 
P    -0.4   -0.1    0.9
I     1.9    0.0   -1.2
I    -1.7   -2.0   -1.3
I    -1.6    2.3   -1.1
P    -0.4    0.2   -3.3
I     0.7    2.0    3.0
I     0.7   -2.3    2.9
H     3.8    1.8    0.1
I    -3.0   -0.1    2.9
H     3.0    2.7    1.4
H    -3.5    2.8    0.6
C     3.8    2.7    0.6
H    -1.2   -4.6   -0.0
H     3.7   -1.7   -2.8
H    -4.1    2.0    1.9
H    -0.1   -4.5    2.2
H    -0.9    4.5   -2.0
H     0.5   -5.1   -0.0
P    -0.5   -0.2    5.1
H     3.7    3.6   -0.1
N    -4.2    2.8    1.3
H    -3.5   -2.7   -3.0
C    -0.5   -5.4    0.3
H     3.2   -2.6    3.7
H     3.6   -3.4   -2.5
C     3.8   -2.7   -3.2
N    -0.5   -5.4    1.8
I     0.7   -2.0   -5.4
H     3.1   -2.8   -4.1
H    -4.1    3.7    1.8
H    -5.6    1.8    0.1
I     0.8    2.2   -5.4
N    -0.6    5.4   -2.4
H     5.3    2.0    1.9
H     0.4    5.6   -2.0
N     5.1    2.8    1.3
H     0.4    3.9    4.7
I    -2.9    0.2   -5.4
H    -1.5   -5.6    2.2
H    -4.6   -2.0    3.7
C    -5.6    2.7    0.6
N    -4.2   -2.8   -3.8
H    -4.0   -2.0   -4.5
H     4.8   -2.0    3.7
H     0.2    4.8   -4.2
N     4.1   -2.7    4.0
H    -0.8   -6.4   -0.1
H     5.9    2.8    0.6
H     0.1   -6.2    2.1
H    -5.7   -1.7   -2.8
H    -1.2    6.2   -2.0
H     5.2    3.7    1.8
H    -5.7    3.6   -0.1
C    -0.6    5.5   -3.9
I     2.7    6.0   -1.3
I     3.0   -5.9   -1.3
H    -1.5    5.2   -4.2
H     4.5   -3.6    3.7
H    -4.1   -3.7   -4.3
C    -5.6   -2.7   -3.2
N     5.2   -2.8   -3.8
H    -1.6    5.3    4.4
I     6.4   -0.1    2.9
H    -6.3    2.7    1.4
N     0.1    4.6    5.4
H    -4.8   -3.6    3.7
H    -5.7   -3.4   -2.5
N    -5.2   -2.7    4.0
H     5.9   -2.7   -3.0
H     5.4   -2.0   -4.5
H     3.9   -1.7    5.9
H    -0.5    4.0    6.1
I     1.9   -0.1    7.1
H     3.2    2.6   -6.2
H    -0.1    6.2    4.1
C     4.1   -2.7    5.5
C    -0.7    5.7    4.8
I    -7.4    0.0   -1.2
P    -0.4    0.1   -7.5
H     3.4   -3.4    5.9
I    -1.7    2.1    7.1
H    -6.2   -2.6    3.7
I    -3.9   -5.9    2.9
I    -1.8   -2.1    7.2
H    -0.4    6.5   -4.2
H     5.3   -3.7   -4.3
H     0.9    4.9    5.9
I    -4.1    6.0    2.9
H    -4.2   -3.1    5.9
H    -4.5    2.0   -6.1
I     7.6   -2.0   -1.3
H    -6.3   -2.8   -4.1
H     4.8    2.0   -6.1
C    -5.2   -2.7    5.5
I     7.7    2.3   -1.1
H     0.2   -4.4   -6.9
H    -5.4   -1.7    5.9
N     4.2    2.7   -6.5
H     5.1   -3.1    5.9
I     6.4    0.2   -5.4
H     4.5    3.7   -6.1
I     5.3    6.0    2.9
I    -2.9    7.9   -1.3
H    -1.4   -5.2   -6.6
H    -1.0    6.4    5.6
I     5.5   -5.9    2.9
I     1.8   -7.9    2.9
H    -4.8    3.7   -6.1
N    -5.2    2.7   -6.5
I    -2.8   -8.2   -1.3
I    -6.3   -5.9   -1.3
C    -0.6   -4.9   -7.3
I     1.7    8.2    2.9
I    -3.9   -5.9   -5.4
P     8.9   -0.1    0.9
I    -6.6    6.0   -1.3
I    -4.1    6.0   -5.5
H    -6.0   -3.4    5.9
P     4.2   -8.0    0.8
H    -6.1    2.6   -6.2
P     4.1    8.1    0.8
H    -1.0   -4.3   -8.1
P    -0.5   -0.1    9.3
H     8.1   -4.6   -0.0
I    -8.6   -2.3    2.9
H     4.0    1.7   -8.3
I    -8.7    2.0    3.0
C     4.2    2.7   -8.0
H     3.9    1.5    8.5
P     8.9    0.2   -3.3
P    -5.2   -8.0    0.8
I     2.9    5.9    7.0
P     4.0    8.1   -3.4
P     4.1   -8.0   -3.4
I     5.3    6.0   -5.5
H     3.4    3.3    8.4
I     5.4   -5.9   -5.4
H     3.5    3.4   -8.4
P    -5.3    8.1    0.8
H    -4.1    3.0   -8.3
H     8.4    4.5   -2.0
H    -0.8    9.8   -0.1
H    -1.1   -4.5    8.7
P    -9.8   -0.1    0.9
I     2.9   -6.1    7.1
I     2.0    0.1   -9.7
C    -5.1    2.7   -8.0
H    -4.2    2.8    8.5
H     7.9   -5.6    2.2
H     0.3   -6.8   -7.2
I     1.8   -8.0   -5.6
I    -1.7   -2.0   -9.6
I     1.7    8.1   -5.6
H    -5.3    1.7   -8.3
N    -0.1   -6.2   -8.0
C     4.2    2.5    8.8
I    -1.6    2.2   -9.7
P    -5.2   -8.0   -3.4
P     8.8   -0.2    5.1
H    -5.4    1.5    8.5
H     0.0   10.0    2.1
H    -8.8   -5.1   -0.0
H    -1.1   -9.9   -2.0
P    -5.3    8.1   -3.4
H     0.6   -6.1    8.2
H     7.8    5.2   -4.2
H     5.2    3.0   -8.3
P    -9.7    0.2   -3.3
I     6.5    7.9   -1.3
I    -7.5   -0.1    7.1
H     5.2    2.8    8.5
H     7.8    5.3    4.4
I    -8.5    2.2   -5.4
C     8.8   -5.4    0.3
P     4.1    8.1    5.0
H     8.1    6.2   -2.0
P     4.2   -8.1    5.0
I    -8.7   -2.0   -5.4
H     9.2   -4.5    2.2
H     0.7   -5.9   -8.6
H    -0.3   -9.6   -4.2
N     8.8   -5.4    1.8
C    -5.2    2.5    8.8
I     2.8  -10.1   -1.3
N     8.8    5.4   -2.4
I     6.6   -8.2   -1.3
I    10.0    2.0    3.0
I     7.5   -2.1    7.2
I     7.6    2.1    7.1
I     2.9   10.2   -1.3
H     8.6   -6.4   -0.1
H     0.5  -10.5   -2.0
I    10.1   -2.3    2.9
H    -9.5   -4.5    2.2
H     0.0   -9.9    4.1
C    -0.7   -5.1    9.5
C    -0.6   10.7    0.3
H    -9.0    5.6   -2.0
H    -5.8    3.4   -8.4
P    -5.1   -8.1    5.0
H    -5.9    3.3    8.4
H    -8.9    3.9    4.7
H    -0.9   -6.9    8.3
P    -5.2    8.1    5.0
H    -0.8   -6.7   -8.5
N    -0.6   10.7    1.8
H    -1.6   10.5    2.2
N    -0.2   -6.3    8.8
H     0.1   -4.6    9.9
N    -0.5  -10.7   -2.4
H     0.4   11.0   -0.0
C     8.8    5.5   -3.9
H     9.8   -5.1   -0.0
I    -2.8    8.0    7.1
I    -2.7   -8.1    7.1
P    -9.9   -0.2    5.1
H    -9.1    4.8   -4.2
I    -6.4    5.9    7.0
C    -9.8   -5.4    0.3
I   -11.0    2.3   -1.1
I    -4.0  -10.2    2.9
H    -9.2   -6.2    2.1
H    -0.9   -9.8    5.6
C    -0.5  -10.6   -3.9
I    -7.6   -7.9    2.9
I    -4.0   10.2    2.9
I    11.3    0.0   -1.2
I   -11.1   -2.0   -1.3
H     3.1    2.4   10.6
I    -6.4   -6.1    7.1
N    -9.8   -5.4    1.8
H   -10.2    4.5   -2.0
N     4.1    2.6   10.3
H    -8.4    4.9    5.9
H     9.7    5.6   -2.0
C     8.7    5.7    4.8
H     8.9    4.0    6.1
H     9.6    4.8   -4.2
H     9.5   -6.2    2.1
H     9.8    3.9    4.7
H    -0.4    4.2  -10.7
C    -0.6  -10.4    4.8
H   -10.6   -4.6   -0.0
I    10.0   -2.0   -5.4
H    -1.3   11.5   -0.0
I     0.7    2.0   11.4
N    -9.9    5.4   -2.4
H     8.0   -5.2   -6.6
I     0.6   -2.1   11.4
H    -1.5   -5.4   10.2
I    -7.7    8.2    2.9
N    -9.2    4.6    5.4
P     8.9    0.1   -7.5
I     3.0   -5.9   -9.7
P    -0.5    0.0  -11.7
H     4.0   -1.6  -10.9
I    10.2    2.2   -5.4
I    -3.0    0.0   11.4
H    -4.6    1.8   10.7
H    -1.5  -10.9    4.4
H     0.2    9.3   -7.2
N     9.4    4.6    5.4
H    -0.8  -11.6   -2.0
H    -0.2   11.6    2.2
I     5.4  -10.2    2.9
H     4.7    1.8   10.7
N    -5.2    2.6   10.3
H    -1.4  -11.0   -4.2
P     4.3   -8.0   -7.6
H     9.0    6.5   -4.2
H     0.2   -7.0    9.6
I     3.0    6.1   -9.8
H     9.3    6.2    4.1
P     4.2    8.1   -7.6
I     5.4   10.2    2.9
H     3.5   -3.3  -10.9
H   -10.1   -6.4   -0.1
H     8.4    6.4    5.6
C    -9.9    5.5   -3.9
H    -9.4    6.2    4.1
H    -4.1   -2.9  -10.9
H     1.0    5.1  -10.9
H     4.4    3.5   10.7
H     0.3  -11.3   -4.2
I    -6.5  -10.1   -1.3
I    -6.4   10.2   -1.3
P    -5.0   -8.0   -7.6
I    -7.4    0.1   -9.7
I    -4.0   10.2   -5.4
I    -4.0  -10.2   -5.5
H    -9.8    4.0    6.1
P    -5.1    8.1   -7.6
H    -9.1   -4.4   -6.9
H    -4.9    3.5   10.7
H    -5.3   -1.6  -10.9
C     4.2   -2.6  -11.3
N     0.2    4.7  -11.4
H   -10.8   -5.6    2.2
I    -7.6   -8.0   -5.6
P    -9.8    0.1   -7.5
H    -9.7    6.5   -4.2
H     8.3   -4.3   -8.1
H   -10.6    6.2   -2.0
C     8.7   -4.9   -7.3
I     7.6   -2.0   -9.6
H     5.2   -2.9  -10.9
I    -7.7    8.1   -5.6
H    -1.0    9.3    8.3
C   -10.0    5.7    4.8
H    -6.2    2.4   10.6
H     9.6   -4.4   -6.9
I     7.7    2.2   -9.7
I     6.6    8.0    7.1
I   -12.3   -0.1    2.9
C    -5.1   -2.6  -11.3
I     2.8   10.0    7.1
I     6.7   -8.1    7.1
I     5.4   10.2   -5.4
H     1.0  -11.2    5.9
H    -0.9    9.5   -8.5
I     5.4  -10.2   -5.5
H    12.4    2.7    1.4
N    -0.2   10.0   -8.0
H     8.2   -4.5    8.7
I    -2.6   -7.9   -9.7
H   -10.9    5.2   -4.2
N     0.2  -11.6    5.4
P     8.8   -0.1    9.3
I     3.0  -10.2    7.0
H     0.5    4.1  -12.1
H    -5.9   -3.3  -10.9
H    10.3    4.9    5.9
P     4.1    7.9    9.2
H    -1.5   10.9   -6.6
H   -10.9    5.3    4.4
H     8.5    9.8   -0.1
H     0.5   10.0    8.2
H    -0.9    6.5  -11.2
I    -6.3   -5.9   -9.7
I    -2.7    8.2   -9.7
P     4.2   -8.2    9.2
H     8.2   -9.9   -2.0
I     6.3    0.0   11.4
H     0.5  -12.2    4.7
I    -6.3    6.1   -9.8
H     3.8  -12.6   -0.1
H   -12.8    2.8    0.6
H    -4.1   -2.2   12.3
H    -4.1  -12.4    1.8
N    -0.2    9.8    8.8
H    13.1    1.8    0.1
P    -5.2    7.9    9.2
H     0.1    9.2    9.6
H     7.8   10.5    2.2
I    11.2   -0.1    7.1
I   -11.0    2.1    7.1
H    12.5   -2.6    3.7
C   -10.0   -4.9   -7.3
C    -0.6    5.9  -12.0
H     0.6   10.2   -8.6
P    -5.1   -8.2    9.2
H   -10.3    6.4    5.6
H    12.4   -2.8   -4.1
I    -4.1    5.8   11.3
I   -12.3    0.2   -5.4
H    -9.0   -6.8   -7.2
H     3.6   12.7   -2.5
H    13.0   -1.7   -2.8
H     3.0   -3.0   12.7
H     0.1    4.6   12.6
I   -11.1   -2.1    7.2
C    -0.7   11.2   -7.3
C    13.1    2.7    0.6
H    -8.7   -6.1    8.2
H   -12.8   -2.7   -3.0
P    -0.5   -0.0   13.5
H    13.0    3.6   -0.1
I    -4.0   -6.1   11.4
P    -9.9   -0.1    9.3
I    12.1    6.0   -1.3
H    -8.6   -5.9   -8.6
H    -0.4  -12.1    6.1
H     0.1   11.7   -6.9
H     5.3   -2.2   12.3
H     5.3  -12.4    1.8
H   -10.7   -5.2   -6.6
H    -1.6    5.0   12.6
H    -1.5    5.4  -12.4
H    13.0   -3.4   -2.5
N     9.3   -6.2   -8.0
H   -13.4    2.0    1.9
N     4.2   -2.6  -12.8
H     8.5   -6.9    8.3
H    -4.1   -3.9   12.5
H     4.4   12.5    3.7
I     5.2    5.8   11.3
H    -5.6  -12.6   -0.1
H     3.3   -2.4  -13.1
H    -3.4  -13.3    0.6
H     8.5   -6.7   -8.5
