         400
 sphere cut out from bulk 
I    -0.3   -1.4    0.0
P    -2.2    1.2    0.0
H     1.5    1.6   -1.9
H     1.1    0.3   -2.7
I     0.5    3.0    0.0
H     2.6    0.3   -1.9
N     1.9    0.9   -2.5
H     0.9    1.1    3.0
H     3.1    0.4    2.2
I    -2.0    1.3   -3.2
P     2.2   -3.3   -0.0
H    -1.0   -3.0   -2.4
I     4.1   -0.6   -0.1
H    -2.1   -2.0    3.0
I    -2.3    1.3    3.2
C     1.9    1.5    3.5
N     3.0    0.5    3.2
H     2.7   -0.5    3.5
H     2.2    2.4    3.1
H    -2.3   -2.1   -3.3
H    -0.9   -3.3    3.0
C     2.5    1.4   -3.7
C    -1.7   -3.0   -3.3
C    -1.8   -3.0    3.4
I    -4.9   -0.6   -0.1
H     1.7    2.0   -4.2
I     2.3   -3.3   -3.2
I     2.4   -3.2    3.2
H     1.8    1.5    4.6
H     2.8    0.6   -4.3
H     3.3    2.1   -3.4
H     3.9    0.8    3.6
H    -1.1   -3.1   -4.2
H    -2.1    3.9   -3.2
H    -3.0   -4.1    2.1
I    -4.0    3.9   -0.1
H    -1.7   -2.9    4.5
H    -3.2   -4.1   -2.4
N    -2.9   -4.0    3.1
N    -2.6   -4.1   -3.3
H    -2.6    4.1    3.5
I     0.5   -6.0    0.0
H    -3.0    4.8    2.1
P     2.3    5.6   -0.0
H    -5.9    0.4    2.2
H    -3.2    4.9   -2.4
H    -5.1    0.8    3.6
I     5.0    3.9   -0.1
H    -3.8   -3.7    3.6
H    -2.1   -5.1   -3.2
N    -2.6    4.8   -3.3
H    -0.8    5.6    3.0
I    -4.0   -5.1   -0.1
H    -1.0    5.9   -2.4
I     0.3   -0.8    6.5
N    -2.8    5.0    3.1
H    -2.6   -4.9    3.5
I    -0.2   -1.3   -6.5
H    -6.4    0.3   -1.9
H    -3.3   -4.2   -4.1
N    -6.0    0.5    3.2
P    -2.1    1.2   -6.4
P     6.8    1.2    0.0
I     2.3    5.7   -3.2
P    -2.2    1.2    6.4
H    -5.6    2.1   -3.4
C    -1.7    6.0   -3.3
I     2.4    5.8    3.2
H    -3.3    4.8   -4.1
I     5.0   -5.1   -0.1
C    -1.8    6.0    3.4
H    -6.2   -0.5    3.5
I     0.4    3.2   -6.5
H     5.2   -3.7    3.6
I    -0.2    3.7    6.3
H    -1.1    5.9   -4.2
H    -3.7    5.3    3.6
I     6.6    1.3    3.2
H     5.8   -4.1   -2.4
P    -6.7   -3.3   -0.0
P     2.3   -3.2   -6.4
H     2.2   -6.5    3.1
I    -0.3    7.5    0.0
H    -6.1    0.6   -4.3
H     6.0   -4.1    2.1
N    -7.1    0.9   -2.5
P     2.3   -3.4    6.4
C    -6.5    1.4   -3.7
I    -4.2   -1.3    6.3
H     1.5   -7.3   -1.9
H    -1.6    6.1    4.5
I     6.9    1.3   -3.2
H     6.9   -2.0    3.0
H     6.7   -2.1   -3.3
H    -2.1    6.9    3.0
I     4.3   -0.7   -6.5
H    -7.4    1.6   -1.9
H    -6.8    2.4    3.1
H     5.8    4.9   -2.4
I    -6.5   -3.2    3.2
N     6.1   -4.0    3.1
H     6.0    4.8    2.1
H    -2.2    6.9   -3.3
C    -7.1    1.5    3.5
I     4.8   -1.3    6.3
I    -4.7   -0.7   -6.5
I    -6.7   -3.3   -3.2
P    -2.2   -7.8    0.0
H     5.7   -4.2   -4.1
I    -0.2   -5.3    6.3
N     6.3   -4.1   -3.3
H     5.2    5.3    3.6
I     4.3    3.1    6.4
H     1.7   -6.9   -4.2
H    -7.9    0.3   -2.7
H     6.4    4.1    3.5
H     3.3   -6.9   -3.4
I    -4.1    3.8   -6.4
H     0.9   -7.8    3.0
C     1.9   -7.5    3.5
C     7.2   -3.0    3.4
H     5.7    4.8   -4.1
N     6.1    5.0    3.1
I    -4.7    3.1    6.4
H     6.8    3.9   -3.2
C     7.3   -3.0   -3.3
I    -2.0   -7.7   -3.2
N     6.3    4.8   -3.3
H    -7.2    2.0   -4.2
H    -8.0    1.1    3.0
N     1.9   -8.1   -2.5
H    -7.2    1.5    4.6
I    -2.4   -7.7    3.2
I     0.4   -5.8   -6.5
I     8.6   -1.4    0.0
C     2.5   -7.5   -3.7
P    -6.7    5.6   -0.0
H     6.4   -4.9    3.5
H     1.2    0.3    8.7
P     2.3    5.6    6.4
H     7.9   -3.0   -2.4
I     4.9    3.8   -6.4
P     2.3    5.7   -6.4
H     1.8   -7.4    4.6
I    -8.5    3.0    0.0
H     2.9    1.7   -8.3
H     7.3   -2.9    4.5
H     6.8   -5.1   -3.2
H    -2.7   -2.9   -8.2
H     1.1   -8.7   -2.7
I    -4.1   -5.2   -6.4
H     2.6   -8.6   -1.9
H     8.1   -3.3    3.0
I    -6.5    5.8    3.2
H     3.3    1.3    8.6
I    -6.7    5.7   -3.2
H     0.8    0.8   -9.3
I     4.1    8.4   -0.1
H    -2.8   -2.5    8.6
H     3.1   -8.6    2.2
P     6.8    1.2    6.4
I    -9.3   -1.4    0.0
P     6.8    1.2   -6.4
H     7.9   -3.1   -4.2
H     1.9   -0.4   -9.3
H    -1.7   -3.9    8.5
N     2.9   -8.5    3.2
I     4.8   -5.2   -6.4
H    -5.7   -6.9   -3.4
I     4.2   -5.8    6.4
H     2.7    8.5    3.5
H     1.1    9.2   -2.7
I    -4.9    8.4   -0.1
N     1.8    0.3    9.6
H     3.8   -8.2    3.6
P    -6.6   -3.2   -6.4
H    -1.2   -2.5    9.4
C    -2.1   -3.1    9.1
H     2.8   -8.4   -4.3
N     1.7    0.6   -9.7
I    -4.7   -5.8    6.4
H     2.6    9.3   -1.9
P    -6.7   -3.4    6.4
H     2.3   -0.6    9.6
H    -6.8   -6.5    3.1
I    -2.0    1.4   -9.6
I     9.5    3.0    0.0
C     2.8    1.6   -9.4
H    -0.6   -3.7   -9.2
I    -2.2    1.1    9.6
C     7.2    6.0    3.4
C     2.8    1.4    9.5
C     7.3    6.0   -3.3
H    -1.7    5.0    8.5
H     2.2    2.4    9.5
I    -0.2    7.7   -6.5
H     3.1    9.3    2.2
C    -2.6   -3.0   -9.3
H    -2.3   -2.0   -9.7
H     6.7    6.9   -3.3
H     8.0    5.9   -2.4
H     6.9    6.9    3.0
H    -1.7    4.1   -9.3
P    -2.2   -7.8   -6.4
H    -5.1   -8.2    3.6
H     8.1    5.6    3.0
N     1.9    9.8   -2.5
P     6.8   -7.8    0.0
P    -2.2   -7.8    6.4
H    -5.6    1.3    8.6
I     4.0   -9.5   -0.1
P    -2.2   10.1    0.0
I     2.2   -3.2   -9.6
I    -8.5   -6.0    0.0
N     3.0    9.5    3.2
H    10.0    0.3   -2.7
I    -0.4  -10.4    0.0
H     2.7   -9.4    3.5
H     9.9    1.1    3.0
I     0.3    8.2    6.5
I     2.4   -3.3    9.6
H    -6.1    1.7   -8.3
H     2.5    2.5   -9.9
H     1.2    0.3   10.4
N    -1.5   -3.9   -9.6
H     7.3    6.1    4.5
H    -2.6    6.1   -8.2
H     1.0   10.1    3.0
H     3.7    1.2   -9.9
C    -6.5   -7.5   -3.7
H    -1.7   -4.9   -9.3
H    -7.5   -7.3   -1.9
H    -5.9   -8.6    2.2
I     6.6   -7.7    3.2
H    -0.6    5.3   -9.2
H     7.9    5.9   -4.2
I    -4.9   -9.5   -0.1
H   -10.0   -3.0   -2.4
I    -4.2    7.6    6.3
H     6.3   -2.9   -8.2
H    10.5    1.6   -1.9
H    -9.8   -3.3    3.0
H     1.5    0.4  -10.7
I    -8.6   -0.8    6.5
P    -6.7    5.6    6.4
I     6.9   -7.7   -3.2
P    -6.6    5.7   -6.4
H     6.2   -2.5    8.6
H     1.5   10.6   -1.9
H    -3.5   -3.3   -9.8
N    -6.0   -8.5    3.2
H     2.8    9.6   -4.3
H    -7.3   -6.9   -4.2
C    -7.1   -7.5    3.5
I    -2.0   10.2   -3.2
H    -6.4   -8.6   -1.9
I    -2.3   10.2    3.2
N    -1.5    5.0   -9.6
I     8.8   -1.3   -6.5
H     3.4    1.4   10.4
C    -2.0    5.9    9.1
I     4.8    7.6    6.3
N    -7.1   -8.1   -2.5
H     3.9    9.7    3.6
H    -2.8    6.5    8.6
H    -6.2    8.5    3.5
N    10.8    0.9   -2.5
C     1.9   10.4    3.5
I     9.5   -6.0    0.0
P   -11.1    1.2    0.0
H    -5.8    9.3    2.2
I    -8.6    3.2   -6.5
H    -5.3    1.2   -9.9
H    -6.2   -8.4   -4.3
I    -9.2   -1.3   -6.5
N    -2.7   -3.7   10.3
H    -7.2   -7.4    4.6
C     2.5   10.4   -3.7
I     9.3   -0.8    6.5
H   -10.1   -3.1   -4.2
I     4.3    8.2   -6.5
C    -2.5    6.0   -9.3
C    -6.2    1.6   -9.4
I     8.7    3.7    6.3
H     2.9   -7.3   -8.3
C    -6.2    1.4    9.5
I     2.4    5.7    9.6
H    -6.4    9.3   -1.9
I     2.2    5.8   -9.6
I     8.6    7.5    0.0
H    -1.2    6.5    9.4
H    -1.3   -4.0  -10.7
I    -4.7    8.2   -6.5
C    10.8    1.5    3.5
I   -11.0    1.3   -3.2
H    -3.5   -4.3   10.1
H    -5.1    9.7    3.6
C   -10.7   -3.0   -3.3
H    -2.1  -11.0    3.0
H     1.8   10.5    4.6
H   -11.1   -2.0    3.0
H    -8.0   -7.8    3.0
N    -6.0    9.5    3.2
H    -7.0   -0.4   -9.3
C   -10.8   -3.0    3.4
H    -3.4    4.7   10.1
H     5.5   -3.3   -9.8
H    10.7    2.0   -4.2
C     6.4   -3.0   -9.3
H    -9.8    5.6    3.0
H    -6.7   -0.6    9.6
P    11.2   -3.3   -0.0
I     0.3   -9.7    6.5
H    11.5    0.3   -1.9
H    -7.8    0.3    8.7
H    -3.0   -2.9   11.0
H    -2.3  -11.0   -3.3
I    -9.2    3.7    6.3
H     2.2   -6.6    9.5
H    10.7    1.5    4.6
I     6.7    1.1    9.6
H    11.1    2.4    3.1
H    -1.3    4.9  -10.7
H     7.2   -3.9    8.5
H    -3.5    5.7   -9.8
I     9.3    3.2   -6.5
I   -11.3    1.3    3.2
C     6.9   -3.1    9.1
H    -2.0   -4.2   10.9
H    -5.6    1.4   10.4
H    -6.3   -9.4    3.5
H   -10.0    5.9   -2.4
H   -10.6   -2.9    4.5
H   -11.2   -2.1   -3.3
H    -6.8    2.4    9.5
H     1.8   11.0   -4.2
N    -2.6    5.3   10.3
H     3.3   -7.6    8.6
N    -7.2    0.3    9.6
I    -9.3    7.5    0.0
I     0.5   12.0    0.0
I     7.0    1.4   -9.6
H     6.7   -2.0   -9.7
I     8.7   -5.3    6.3
H     2.2   11.4    3.1
H     6.3    6.1   -8.2
H     2.4   -6.5   -9.9
H     3.4   11.0   -3.4
H    -2.0    4.8   10.9
H    -7.9   -8.7   -2.7
H    -6.5    2.5   -9.9
I    -6.6   -3.3    9.6
N    -7.3    0.6   -9.7
I    -0.2  -10.2   -6.5
C    11.5    1.4   -3.7
I    11.2   -3.3   -3.2
P     6.7   -7.8    6.4
P     6.8   -7.8   -6.4
H    -6.1    9.6   -4.3
H    -2.3    7.0   -9.7
I    -6.8   -3.2   -9.6
P    -2.1   10.2   -6.4
P     6.8   10.1    0.0
H   -11.1    3.9   -3.2
H    11.7   -0.5    3.5
P    -2.2   10.2    6.4
I    -8.6   -5.8   -6.5
H     7.3    5.0    8.5
I    11.4   -3.2    3.2
H    12.1    0.4    2.2
C     2.7   -7.4   -9.4
H     5.5   -4.3   10.1
H    -1.1  -12.0   -2.4
H     0.8   -8.1   -9.3
I    -9.2   -5.3    6.3
N    11.9    0.5    3.2
N    -7.1    9.8   -2.5
H     6.2    6.5    8.6
H    -8.2    0.8   -9.3
H   -10.1    5.9   -4.2
H     1.2   -8.7    8.7
H     7.8   -2.5    9.4
H    -7.9    9.2   -2.7
C     2.7   -7.5    9.5
I     4.3   -9.7   -6.5
I    -2.0   -7.6   -9.6
H     5.5    4.7   10.1
H     7.3    4.1   -9.3
P     2.2  -12.3   -0.0
C    -1.7  -12.0   -3.3
C    -1.8  -11.9    3.4
H     5.5    5.7   -9.8
P    11.2    5.6   -0.0
H    11.8    0.6   -4.3
I    -4.7   -9.7   -6.5
I     6.6   10.2    3.2
I    -2.3   -7.8    9.6
H   -11.1   -5.1   -3.2
H    -6.1   -7.3   -8.3
C   -10.6    6.0   -3.3
