         400
 sphere cut out from bulk 
I     0.9   -1.0   -0.7
H    -1.3   -1.2    1.4
H    -2.2    1.0    0.7
H    -1.4    1.1    2.1
P     0.9    2.2   -1.4
N    -2.2    0.7    1.7
C    -2.2   -0.8    1.9
I     0.9    2.7    1.7
I    -2.2    2.1   -1.5
H    -3.1   -1.2    1.4
H     3.2   -1.2    1.4
H    -2.2   -1.0    2.9
H    -3.1    1.1    2.1
H     3.2    1.1    2.1
H     4.1    1.0    0.7
P     0.9   -3.7   -2.3
N     4.1    0.7    1.7
H    -1.4    0.0   -4.3
H    -2.2   -1.3   -3.8
C     4.1   -0.8    1.9
I     0.9    1.3   -4.6
I     4.1    2.1   -1.5
I    -2.2   -3.6   -2.4
N    -2.2   -0.6   -4.5
H     4.1   -1.0    2.9
H    -3.1    0.0   -4.3
H     5.0   -1.2    1.4
H     3.3    0.0   -4.3
H     4.9    1.1    2.1
I    -5.4   -1.0   -0.7
H     4.1   -1.3   -3.8
I    -2.2   -4.3    3.2
H     0.9    5.3    2.4
I     0.9    5.3   -2.5
I     4.1   -3.6   -2.4
P    -5.4    2.2   -1.4
N     4.1   -0.6   -4.5
I    -5.4    2.7    1.7
I    -2.2   -0.3    5.9
H     0.1   -5.5    3.0
C    -2.2   -1.1   -5.8
H    -1.3   -1.7   -6.0
I     0.9   -3.3   -5.4
H     0.0    4.7    4.5
H    -1.4    5.1   -3.9
H     1.8   -5.5    3.0
H     4.9    0.0   -4.3
I     4.1   -4.3    3.2
H     1.8    4.7    4.5
H    -2.2    4.1   -4.9
N     0.9    6.0    3.1
N     0.9   -6.1    3.1
H    -2.2   -0.3   -6.6
P    -5.4   -3.7   -2.3
H    -3.1   -1.7   -6.0
C     0.9    5.3    4.4
H     3.2   -1.7   -6.0
N    -2.2    5.0   -4.5
H    -3.1    5.1   -3.9
I     4.1   -0.3    5.9
H     3.3    5.1   -3.9
I    -5.4    1.3   -4.6
C     4.1   -1.1   -5.8
H     0.1    6.6    3.0
H     0.9   -6.9    2.4
I     0.9   -6.8   -2.5
I     7.3   -1.0   -0.7
I     0.9   -3.6    6.4
H    -2.2   -5.1   -5.0
H     1.8    6.6    3.0
P    -2.2   -3.5    6.3
H     4.1    4.1   -4.9
P     7.3    2.2   -1.4
H     4.1   -0.3   -6.6
H    -4.5   -5.5    3.0
N     4.1    5.0   -4.5
H    -7.7   -1.2    1.4
H    -4.5    4.7    4.5
H    -5.4    5.3    2.4
I     7.3    2.7    1.7
P     0.9    2.2   -7.6
I    -5.4    5.3   -2.5
H     5.0   -1.7   -6.0
I    -2.2    2.5   -7.3
H     0.9    6.1    5.2
H     0.9   -6.1    5.2
H     4.9    5.1   -3.9
H    -7.7    1.1    2.1
P    -2.2    2.3    7.5
H    -1.4   -7.0   -3.9
C     0.9   -6.8    4.4
I     0.9    2.5    7.7
H     4.1   -5.1   -5.0
P     4.1   -3.5    6.3
I    -5.4   -3.3   -5.4
P     7.3   -3.7   -2.3
C    -2.2   -6.0   -5.5
C    -2.2    6.1   -5.5
H     0.9   -0.2    8.5
H    -4.5    6.6    3.0
H    -3.1   -7.0   -3.9
H    -8.6    1.0    0.7
N    -5.4    6.0    3.1
H     3.3   -7.0   -3.9
I     7.3    1.3   -4.6
H    -1.3    6.0   -6.1
H     0.0   -7.4    4.5
N    -2.2   -7.1   -4.5
I    -2.2    7.8    3.2
I     4.1    2.5   -7.3
N    -5.4   -6.1    3.1
N    -8.6    0.7    1.7
C    -5.4    5.3    4.4
H    -1.3   -6.1   -6.1
P     0.9    8.4   -2.3
C    -8.6   -0.8    1.9
P     4.1    2.3    7.5
H    -7.7    0.0   -4.3
I    -2.2    5.3    6.7
H     1.8   -7.4    4.5
H    -6.3   -5.5    3.0
H    -2.2    7.1   -5.0
I    -8.6    2.1   -1.5
H     6.4   -5.5    3.0
H    -5.4   -6.9    2.4
H    -6.3    4.7    4.5
I    -5.4   -6.8   -2.5
H     6.4    4.7    4.5
H    -8.6   -1.0    2.9
H    -3.1    6.0   -6.1
I    -2.2    8.5   -2.4
I    -5.4   -3.6    6.4
C     4.1   -6.0   -5.5
H     3.2    6.0   -6.1
C     4.1    6.1   -5.5
H     0.0   -1.7    9.1
I     0.9   -0.4   -9.2
H    -3.1   -6.1   -6.1
H     3.2   -6.1   -6.1
H     7.3    5.3    2.4
C     0.9   -1.1    9.2
I     7.3    5.3   -2.5
N     4.1   -7.1   -4.5
I     4.1    7.8    3.2
H     1.8   -1.7    9.1
H     4.9   -7.0   -3.9
H    -8.6   -1.3   -3.8
P     0.9   -3.6   -8.7
I     4.1    5.3    6.7
P    -5.4    2.2   -7.6
H     4.1    7.1   -5.0
I    -2.2   -3.6   -8.6
H    -6.3    6.6    3.0
I    -8.6   -3.6   -2.4
I     0.9   -9.4    1.7
H    -9.5   -1.2    1.4
H    -5.4    6.1    5.2
H    -5.4   -6.1    5.2
I     7.3   -3.3   -5.4
N    -8.6   -0.6   -4.5
H     6.4    6.6    3.0
H     9.5   -1.2    1.4
H    -2.2   -8.0   -4.9
H    -9.4    1.1    2.1
C    -5.4   -6.8    4.4
I     4.1    8.5   -2.4
I    -5.4    2.5    7.7
H    -4.5   -7.4    4.5
I     0.9    5.3   -8.3
I    -2.2   -6.8    6.7
H    -7.7   -1.7   -6.0
H     9.6    1.1    2.1
H     5.0    6.0   -6.1
N     7.3    6.0    3.1
N     7.3   -6.1    3.1
H     5.0   -6.1   -6.1
H    -7.7    5.1   -3.9
C     7.3    5.3    4.4
H    -5.4   -0.2    8.5
P     0.9   -9.9   -1.4
I    -8.6   -4.3    3.2
I     4.1   -3.6   -8.6
H    -4.5   -1.7    9.1
H     7.3   -6.9    2.4
H     8.1   -5.5    3.0
P    -5.4    8.4   -2.3
I     7.3   -6.8   -2.5
H     4.1   -8.0   -4.9
H    -9.4    0.0   -4.3
I     7.3   -3.6    6.4
I    -2.2  -10.0   -1.5
I    -2.2   -3.3    9.6
I     0.9    8.8   -5.4
I    -8.6   -0.3    5.9
C    -8.6   -1.1   -5.8
H     8.2    4.7    4.5
I     4.1   -6.8    6.7
H    10.4    1.0    0.7
H     9.6    0.0   -4.3
N    10.4    0.7    1.7
N     0.9   -0.5   10.6
C    10.4   -0.8    1.9
I    -5.4   -0.4   -9.2
H    -8.6    4.1   -4.9
C    -5.4   -1.1    9.2
H     0.1    0.1   10.7
P     7.3    2.2   -7.6
H    -6.3   -7.4    4.5
I     0.9    8.5    6.4
H     0.0    6.0    8.9
I    10.4    2.1   -1.5
H     6.4   -7.4    4.5
H     0.0   -6.1    8.9
I    -2.2    1.4   10.5
H    -8.6   -0.3   -6.6
I     0.9   -6.9   -8.3
H     7.3    6.1    5.2
H     7.3   -6.1    5.2
H     1.8    0.1   10.7
H    10.4   -1.0    2.9
P    -2.2    8.6    6.3
P    -5.4   -3.6   -8.7
N    -8.6    5.0   -4.5
H     8.1    6.6    3.0
C     7.3   -6.8    4.4
H     1.8    6.0    8.9
I     4.1  -10.0   -1.5
I     7.3    2.5    7.7
I     4.1   -3.3    9.6
H     1.8   -6.1    8.9
H     0.9    4.1   10.1
I    -5.4   -9.4    1.7
H    -1.3   11.0    1.4
H    -8.6   -5.1   -5.0
H    -7.7   -7.0   -3.9
H    -6.3   -1.7    9.1
H     7.3   -0.2    8.5
H    10.4   -1.3   -3.8
P    -8.6   -3.5    6.3
I    -5.4    5.3   -8.3
H     6.4   -1.7    9.1
I     0.9   11.1   -0.7
H     0.9   -5.0   10.0
C     0.9   -6.0    9.5
H    -1.4  -11.0    2.1
I    10.4   -3.6   -2.4
I     4.1    1.4   10.5
H    -9.5   -1.7   -6.0
N    10.4   -0.6   -4.5
C     0.9    6.1    9.5
H    -9.4    5.1   -3.9
P     7.3    8.4   -2.3
H     9.5   -1.7   -6.0
H     0.9   -1.3   11.3
P    -5.4   -9.9   -1.4
H    -2.2  -11.2    0.7
P     4.1    8.6    6.3
H    11.3   -1.2    1.4
H    -3.1   11.0    1.4
H     3.2   11.0    1.4
H    -7.7    6.0   -6.1
I    -8.6    2.5   -7.3
H     9.6    5.1   -3.9
H    11.3    1.1    2.1
H    -7.7   -6.1   -6.1
P    -8.6    2.3    7.5
H    -1.3    4.6  -10.5
H    -3.1  -11.0    2.1
H    -4.6    0.1   10.7
H    -4.5    6.0    8.9
H     3.2  -11.0    2.1
H    -2.2   10.8   -3.8
I    -5.4    8.8   -5.4
H    -4.5   -6.1    8.9
I     7.3   -0.4   -9.2
H    -2.2   11.1    2.9
H    -2.2    6.0   -9.8
I    10.4   -4.3    3.2
C    -2.2   11.4    1.9
N     0.9    5.1   10.5
C     7.3   -1.1    9.2
N    -2.2  -11.4    1.7
H    -2.2   -6.1   -9.8
I     0.9  -10.8   -4.6
I   -11.7   -1.0   -0.7
C    -8.6   -6.0   -5.5
C    -8.6    6.1   -5.5
N    -5.4   -0.5   10.6
H     4.1  -11.2    0.7
H     8.2   -7.4    4.5
P     7.3   -3.6   -8.7
H    -3.1    4.6  -10.5
H     3.2    4.6  -10.5
I    10.4   -0.3    5.9
I    -5.4    8.5    6.4
C    10.4   -1.1   -5.8
N    -8.6   -7.1   -4.5
I    -8.6    7.8    3.2
I     7.3   -9.4    1.7
P   -11.7    2.2   -1.4
I    -5.4   -6.9   -8.3
C    -2.2    5.3  -10.6
H    11.3    0.0   -4.3
H    -1.3   10.4   -6.0
H     5.0   11.0    1.4
I    -8.6    5.3    6.7
H     4.1   10.8   -3.8
H    -5.4    4.1   10.1
I   -11.7    2.7    1.7
H     0.9   -1.1  -12.1
H    -8.6    7.1   -5.0
I     7.3    5.3   -8.3
H     4.1   11.1    2.9
H     4.1    6.0   -9.8
C     4.1   11.4    1.9
H     4.9  -11.0    2.1
H    10.4    4.1   -4.9
N     4.1  -11.4    1.7
H     4.1   -6.1   -9.8
P     0.9    8.6   -8.7
I    -2.2    8.5   -8.6
H     0.1    5.1   11.2
I    -2.2   -9.6   -7.3
H     8.2   -1.7    9.1
H     0.9    7.1   10.0
H    10.4   -0.3   -6.6
I    -8.6    8.5   -2.4
I     0.9   -9.6    7.7
H    -9.4   -7.0   -3.9
P     7.3   -9.9   -1.4
I    -5.4   11.1   -0.7
H    -3.1   10.4   -6.0
H    -6.2    0.1   10.7
N    10.4    5.0   -4.5
H     1.8    5.1   11.2
H     3.2   10.4   -6.0
H    -5.4   -5.0   10.0
H    -6.3    6.0    8.9
C    -5.4   -6.0    9.5
H    -6.3   -6.1    8.9
H     6.4    0.1   10.7
P     0.9   -9.9   -7.6
H     6.4    6.0    8.9
H     9.6   -7.0   -3.9
P   -11.7   -3.7   -2.3
H     6.4   -6.1    8.9
C     4.1    5.3  -10.6
C    -5.4    6.1    9.5
P    -2.2   -9.8    7.5
H     5.0    4.6  -10.5
H    -5.4   -1.3   11.3
H   -10.9   -5.5    3.0
N    -2.2   11.6   -4.5
H    10.4   -5.1   -5.0
H   -10.8    4.7    4.5
I     7.3    8.8   -5.4
I   -11.7    1.3   -4.6
I    -8.6   -3.6   -8.6
C    -2.2   11.0   -5.8
P    10.4   -3.5    6.3
I     0.9   -4.4  -11.9
N     0.9   -7.1   10.5
I     4.1    8.5   -8.6
H    -8.6   -8.0   -4.9
I     4.1   -9.6   -7.3
H    -9.5    6.0   -6.1
H     9.5    6.0   -6.1
C    -2.2   -6.9  -10.6
N     7.3   -0.5   10.6
H    -9.5   -6.1   -6.1
I    -8.6   -6.8    6.7
N    -5.4    5.1   10.5
H     9.5   -6.1   -6.1
H     0.9   -8.0   10.1
H    11.3   -1.7   -6.0
H    -1.4  -12.1   -4.3
I     7.3    8.5    6.4
H     0.1    1.1  -12.9
I    -5.4  -10.8   -4.6
H    11.3    5.1   -3.9
I    10.4    2.5   -7.3
I     7.3   -6.9   -8.3
H    -1.4   12.2   -4.3
H    -1.3   -7.5  -10.5
H     5.0   10.4   -6.0
P     4.1   -9.8    7.5
P    10.4    2.3    7.5
H     1.8    1.1  -12.9
N     4.1   11.6   -4.5
H   -10.9    6.6    3.0
H   -11.7    5.3    2.4
H     7.3    4.1   10.1
H    -4.6    5.1   11.2
I   -11.7    5.3   -2.5
C     4.1   11.0   -5.8
I     0.9   -3.5   12.6
N    -2.2   12.8    1.7
H     0.1   -7.0   11.2
I     0.9  -13.1   -0.7
C     0.9   -0.8  -13.1
