         400
 sphere cut out from bulk 
P     0.6    1.4   -0.2
I    -1.2   -0.7   -1.7
I     1.5   -0.9    2.2
H     1.1   -3.0    0.0
H    -2.8   -1.4    0.6
I    -1.8    1.7    2.2
H     0.1   -3.1   -2.2
I     3.3    0.8   -1.7
H    -0.5   -3.8    0.0
C     0.6   -3.9   -0.3
C    -3.9   -1.2    1.0
I    -0.2    3.9   -1.8
H    -4.2   -0.3    0.6
H    -3.3   -0.4    2.8
N     0.6   -3.9   -1.8
I     2.1    3.3    2.1
P     0.6    1.3    4.2
H    -3.4    3.0    0.0
H     1.6   -3.9   -2.1
N    -3.9   -1.2    2.5
H     4.7   -0.3    0.6
H    -3.4   -2.1    2.8
H     1.0   -4.8    0.0
H     4.5   -2.1    0.6
H    -4.5   -2.1    0.6
H     4.1   -1.2    2.8
H     1.1    0.5   -5.1
H    -0.3    1.3   -5.0
H     0.1   -4.8   -2.2
H    -2.9    3.9   -2.2
C     5.1   -1.2    1.0
H     1.3   -3.0    4.2
P    -3.8   -1.3   -3.6
C    -3.8    4.0   -0.3
H    -0.4   -3.6    4.2
I    -2.4   -4.5    2.2
N     0.6    1.3   -5.4
H     1.1    2.2   -5.1
H    -4.8   -1.2    2.8
H    -4.4    3.1   -2.1
H     4.1    4.0    0.1
N    -3.9    3.9   -1.8
N     5.1   -1.2    2.5
H    -3.3    4.8    0.0
H     4.6    3.1   -2.1
I     4.3   -3.8   -1.7
C     0.6   -3.8    4.5
I    -5.7    0.8   -1.7
H     1.1    5.7    1.9
H    -3.5    3.0    4.2
I     2.5   -1.8   -5.4
I    -3.0    1.3   -5.3
I    -4.7   -3.8   -1.7
H     6.1   -1.4    0.6
I    -0.8   -0.6    6.2
H    -4.9    4.0    0.1
H     5.7   -0.4    2.8
H     5.6    3.0    0.0
P     5.1   -1.3   -3.6
H     0.9   -4.8    4.2
I    -1.9   -3.1   -5.4
C     5.1    4.0   -0.3
H     5.5   -2.1    2.8
N     5.1    3.9   -1.8
H    -4.4    4.8   -2.1
H    -0.3    6.6    1.9
N     0.6    6.5    2.2
H     4.6    4.8   -2.1
I     2.6   -6.1    2.1
H     0.0    5.7    4.0
C     0.6    1.3   -6.9
I     3.1    1.1    6.3
H     0.1   -3.0    6.4
H    -3.2    4.7    4.2
C    -3.8    3.9    4.5
H     4.1    4.1    4.2
I    -0.3    3.7    6.2
N     0.5   -3.9    6.0
H     0.0    0.5   -7.2
I    -1.2   -7.0   -1.7
I     2.5    4.5   -5.4
P     0.6    6.5   -3.5
H     5.7    4.8    0.0
H     5.5    3.0    4.2
H     1.7    1.2   -7.2
C     0.6    6.5    3.7
H     6.1    3.9   -2.2
H     0.2    2.3   -7.2
P    -3.9   -6.5   -0.3
H    -4.9    4.1    4.2
H     1.5   -4.0    6.4
H     1.2    7.4    1.9
I     7.2    1.7    2.2
H     1.7    6.4    4.0
I    -2.9    6.9    2.1
I    -7.4   -0.9    2.2
I    -6.8    3.3    2.1
H    -0.0   -4.7    6.4
C     5.1    3.9    4.5
P     0.7   -3.8   -6.9
H    -2.8    3.8    6.4
I     3.3    7.1   -1.7
I     7.8   -0.7   -1.7
I     6.0    1.3   -5.3
N    -3.8    3.9    6.0
I    -2.0    5.9   -5.4
P     5.0   -6.5   -0.3
I     6.6   -4.5    2.2
H    -4.4    3.1    6.4
H    -7.8   -3.0    0.0
P    -8.3    1.4   -0.2
H     4.6    3.1    6.4
H     1.1   -8.2    1.9
H     0.2    7.5    4.0
I     1.4   -6.5   -5.4
H     5.8    4.7    4.2
I     4.1   -4.2    6.3
I    -6.5   -1.8   -5.4
P    -3.9   -6.5    4.2
H    -7.4   -3.9   -2.1
H    -3.6   -5.5   -5.6
I    -5.9    1.1    6.3
P     0.7    1.4    8.6
I    -1.2    8.6   -1.7
P    -3.8    3.8   -6.9
N     5.1    3.9    6.0
H    -2.6   -1.0    8.4
I    -4.9   -4.2    6.3
H     0.2   -8.1    4.0
H    -4.2    4.8    6.4
I    -6.3   -6.1    2.1
H    -0.4   -9.0    1.9
P     5.1   -6.5    4.2
H    -4.2   -0.1    8.2
I    -5.7    7.1   -1.7
C    -8.4   -3.9   -0.3
I     3.2   -8.5   -1.7
H    -7.9   -4.8    0.0
H     4.7    4.8    6.4
H    -7.7   -3.0    4.2
I    -1.5   -6.8    6.2
H     8.5   -3.8    0.0
H    -7.8    0.5   -5.1
N     0.6   -9.1    2.2
I     7.1   -3.1   -5.4
I     6.1    6.9    2.1
N    -8.4   -3.9   -1.8
P    -8.3    1.3    4.2
P     5.1    3.8   -6.9
I    -0.3   -1.5   -9.3
I    -3.0   -8.7    2.1
H     4.8   -0.1    8.2
I    -6.5    4.5   -5.4
H    -7.8    2.2   -5.1
H     5.4   -5.5   -5.6
H    -4.5   -2.5    8.1
H     4.5   -2.5    8.1
C    -3.6   -0.8    8.9
H    -8.9   -3.1   -2.2
H     6.1    3.8    6.4
C    -3.7   -6.0   -6.6
H    -2.9   -1.4   -9.1
P     9.6    1.4   -0.2
I     8.7    3.9   -1.8
H    -2.7   -6.2   -7.1
P     0.5   -9.1   -3.5
C     0.6   -9.1    3.7
H     9.1   -3.1   -2.2
P    -3.9    9.1   -0.3
H    -7.9    5.7    1.9
H    -4.2   -5.3   -7.3
N    -8.3    1.3   -5.4
H     3.7   -7.1   -6.0
H     0.1    5.7    8.3
H    -4.3   -0.4   -9.1
I    -1.5    3.6   -9.3
I     2.7    9.5    2.1
H     8.6    1.3   -5.0
I     3.6    2.0   -9.3
I    -9.2    3.9   -1.8
H     1.0   -9.9    1.9
H     1.6   -9.2    4.0
I     3.7    7.2    6.2
H     8.5   -3.6    4.2
H    -9.4   -3.8    0.0
H     4.7   -5.3   -7.3
N    -4.3   -2.1    9.0
H     4.7   -0.4   -9.1
H    -8.1   -4.8    4.2
I     1.4   -1.3   10.1
I     8.1   -0.6    6.2
N    -3.9   -1.3   -9.5
C    -8.4   -3.8    4.5
H    -8.9   -4.8   -2.2
C     9.5   -3.9   -0.3
H    -4.4   -2.1   -9.1
I   -10.2   -0.7   -1.7
H     3.7   -1.9    9.5
H    -3.7    7.7   -5.9
N     4.6   -2.1    9.0
H    -7.3    1.2   -7.2
C     5.3   -0.8    8.9
C     5.3   -6.0   -6.6
H     4.6   -2.1   -9.1
P     5.1    9.1   -0.3
I    -5.8   -8.5   -1.7
H    -3.5   -0.3    9.9
H     9.1   -4.8   -2.2
N     9.6   -3.9   -1.8
I    -1.9    2.1   10.1
H    -7.3    6.4    4.0
H    10.1   -3.0    0.0
I     6.9    5.9   -5.4
I     3.0   -4.1   -9.2
H    -3.8   -7.9   -5.9
P     9.6    1.3    4.2
H    -7.5   -4.0    6.4
H     6.3   -1.0    8.4
H     1.7    6.4    8.3
I     7.8   -7.0   -1.7
H    -3.8   -2.7    9.6
H    -9.3    1.3   -5.0
N    -4.4   -7.3   -6.5
H    -0.1   -9.9    4.0
I     1.4    9.1   -5.4
H    -5.3   -7.1   -6.0
P    -3.9    9.2    4.2
N     4.6   -7.3   -6.5
H    -0.0    5.7   -9.1
I    10.5   -0.9    2.2
I     6.0   -8.7    2.1
N    -8.3    6.5    2.2
C     0.7    6.5    8.6
N     5.1   -1.3   -9.5
H     1.1   10.8    0.0
I    -5.3    7.2    6.2
H    -7.8    7.4    1.9
I    -1.4    8.8    6.2
I    -5.3    2.0   -9.3
C    -8.4    1.3   -6.9
H    -9.4   -3.6    4.2
I    -0.9   -5.8   -9.2
I     2.5    3.4   10.1
H     5.3    7.7   -5.9
H    -5.3   -1.9    9.5
H     3.7    8.5   -6.0
H     8.6    6.6    1.9
H     6.1   -1.4   -9.1
H     0.2   10.8   -2.2
N    -8.4   -3.9    6.0
I     3.6   -8.4    6.2
N     9.6    1.3   -5.4
H    10.0   -4.8    0.0
I   -10.8    1.7    2.2
H     0.2    7.5    8.3
H     5.2   -7.9   -5.9
P    -8.4    6.5   -3.5
C    -8.3    6.5    3.7
C     9.5   -3.8    4.5
H     1.5    6.4   -9.1
H     5.4   -0.3    9.9
H     5.2   -2.7    9.6
H    -3.3  -10.8    0.0
I     8.7    3.7    6.2
I    -2.1   -4.5   10.1
P     5.1    9.2    4.2
H     6.3   -6.2   -7.1
H    -8.8   -3.0    6.4
H    10.1    0.5   -5.1
I    -2.1   -9.7   -5.4
I    -7.6   -6.5   -5.4
H    -9.0    5.7    4.0
N    -4.3    8.3   -6.5
H     9.0    5.7    4.0
H    -0.0    0.5  -11.4
H    10.6   -3.9   -2.1
P    -3.9   -6.6    8.6
P    -8.3   -3.8   -6.9
H    10.2   -3.0    4.2
H    -8.9    0.5   -7.2
H     9.1   -3.0    6.4
N     0.6    6.5   -9.5
H    10.1    2.2   -5.1
N     4.7    8.3   -6.5
H    -7.8   -8.2    1.9
H     9.0    0.5   -7.2
I    -6.3    9.5    2.1
I    -2.3   11.1    2.2
H    -9.3    6.6    1.9
H     4.5   -7.7   -7.4
H    -8.8    2.3   -7.2
H    -4.5   -7.7   -7.4
H     0.1   -8.1    8.3
H     1.6    1.2  -11.4
H    -5.2    8.5   -6.0
H     1.0   10.8    4.2
I    -9.8   -0.6    6.2
H    10.0    5.7    1.9
H     0.2    2.3  -11.4
C    -3.9   -1.3  -10.9
H    -4.5    7.9   -7.4
I    -9.3    3.7    6.2
H     4.5    7.9   -7.4
I     7.8    8.6   -1.7
C     0.6   11.7   -0.3
I    -5.9   -4.1   -9.2
H    -3.2   -0.5  -11.3
H     0.2    7.4   -9.1
H     9.9   -4.8    4.2
I    11.1    3.3    2.1
I    -5.4   -8.4    6.2
H    -0.4   11.8    0.0
I    -0.3  -11.7   -1.8
I     4.1    6.2   -9.2
N     9.6    6.5    2.2
I     7.5   -6.8    6.2
N     0.7   11.7   -1.8
H     9.2    2.3   -7.2
H    -4.4  -10.8   -2.1
C     0.6    1.3  -11.8
C     9.6    1.3   -6.9
N     9.5   -3.9    6.0
H     8.9   -4.7    6.4
H     4.5  -10.8   -2.1
H   -11.8   -1.4    0.6
P     5.1   -6.6    8.6
H     1.2    5.7   10.4
P     0.6   -3.9  -11.3
H    -9.0   -4.7    6.4
P    -8.3    1.4    8.6
I     2.5   -5.9   10.1
H     1.7   11.7   -2.1
H    -3.5   -2.2  -11.3
H     4.1   -1.1  -11.3
N     0.7    6.5   10.1
H    -2.6    9.4   -7.1
H    -3.5   10.1   -5.6
I    -4.8    6.2   -9.2
H    -3.3  -10.9    4.2
P     9.6    6.5   -3.5
C     5.1   -1.3  -10.9
H     5.6  -10.8    0.0
H    -8.7    7.5    4.0
C     9.6    6.5    3.7
C    -3.6    9.6   -6.6
H    -3.0  -11.7   -2.2
H     0.1   -8.2   -9.1
H     4.0  -11.6    0.1
C    -3.9  -11.6   -0.3
H    -0.3    6.5   10.5
H    -4.9   -1.1  -11.3
I    -2.9    6.5   10.1
I    12.3    0.8   -1.7
I   -11.4   -4.5    2.2
N    -3.9  -11.7   -1.8
H     1.6   -9.2    8.3
H    -7.4   -9.2    4.0
I    -6.4    3.4   10.1
P     9.6   -3.8   -6.9
I     7.5    3.6   -9.3
I   -10.2   -7.0   -1.7
I   -10.9   -3.1   -5.4
C     0.6   -9.1    8.6
N    -8.4   -9.1    2.2
I     7.1    2.1   10.1
H     8.6   -9.0    1.9
H     9.2    7.5    4.0
H    -4.9  -11.6    0.1
P     0.6   -3.9   11.9
H   -12.3   -0.4    2.8
I     2.4  -11.1   -5.4
P    -3.9    3.9  -11.3
H    -8.8   -8.1    4.0
H     1.2   12.6    0.0
C     0.6   11.8    4.5
H     1.0    5.6  -11.3
H     0.0   10.9    6.4
I     4.3   11.8   -1.7
I     2.1  -12.3    2.1
H     5.7   -0.5  -11.3
H   -11.9    3.9   -2.2
I    -7.6   -1.3   10.1
C     5.1  -11.6   -0.3
H    10.2    7.4    1.9
H    -0.4   12.0    4.2
H   -12.4    3.0    0.0
H     0.2   12.6   -2.2
H     5.5   -2.2  -11.3
H    -7.3    6.4    8.3
H     5.5   10.1   -5.6
C     0.6    6.6  -10.9
I    -4.7   11.8   -1.7
I    11.5   -1.8   -5.4
I     8.7   -1.5   -9.3
N     5.0  -11.7   -1.8
H     1.2    7.4   10.4
C     5.4    9.6   -6.6
H     9.2   -8.1    4.0
H    -8.0   -9.9    1.9
H   -12.4   -2.1    2.8
