         400
 sphere cut out from bulk 
P     0.3    0.0    0.9
I    -2.2   -0.5   -1.0
I     2.4   -0.4   -1.6
I     0.2    3.2    0.1
H     0.1   -2.1   -2.5
I     0.5   -3.2    1.6
I    -1.6    0.5    3.3
H    -3.0    2.3    0.7
H    -3.1   -2.3    0.6
H    -0.3    3.2   -2.4
I     2.9    0.5    2.7
C    -0.0   -2.5   -3.5
H     3.6   -2.2    1.0
H     1.7    2.2   -3.5
H    -0.7    2.3   -3.8
H    -1.0   -2.1   -4.0
H     3.8    2.3    1.2
N    -0.2    3.2   -3.5
C    -3.4    3.2    1.1
H     0.8   -2.2   -4.2
N    -3.6   -3.2    1.0
H     0.7    3.2    3.7
H    -2.9    4.0    0.7
H    -3.3    3.2    2.2
H     4.0   -3.1   -0.5
H    -3.2   -4.0    0.6
C     1.2    3.1   -3.9
H    -3.5   -3.2    2.0
C     4.1   -3.1    0.6
H    -0.9   -4.3   -2.8
H     4.2    3.2   -0.3
N    -0.1   -4.0   -3.5
H     1.0   -3.2    4.1
N     4.3    3.2    0.8
H     0.7   -4.4   -3.1
P    -4.3   -0.0   -3.5
H     3.6   -4.0    1.0
H     1.7    4.0   -3.5
H    -0.7    4.0   -3.8
H     3.8    4.0    1.2
I    -1.7    0.6   -5.4
H    -1.0   -2.3    5.1
H    -0.7    3.1    4.8
N    -4.9    3.2    0.8
C     0.4    3.4    4.7
H    -5.0    3.2   -0.3
H     1.1    1.7    5.6
H    -5.3    2.3    1.2
P     4.9   -0.0   -3.5
C    -5.1   -3.1    0.6
H     1.2    3.1   -5.0
H    -5.1   -3.1   -0.5
H    -5.5   -2.2    1.0
I    -4.3    3.2   -2.8
N     0.9   -3.2    5.2
H     1.4   -2.4    5.6
H    -0.3   -4.4   -4.4
I    -2.2   -5.8   -1.1
P     0.3   -6.3    0.9
P     0.3    6.4    0.9
N     1.2    2.7    5.7
C    -0.5   -3.2    5.5
I     4.8    3.2   -2.8
N     5.5   -3.2    1.0
H     6.0   -2.3    0.6
I     2.3   -5.8   -1.7
H     6.2    2.3    0.7
P    -4.1    0.0    5.2
I    -4.1   -3.2   -4.2
C     5.7    3.2    1.1
H    -1.0   -4.1    5.1
H     0.5    4.5    4.9
I     2.9    0.4   -6.0
H     2.2    3.0    5.7
H     5.6   -3.2    2.0
H    -5.3    4.0    1.2
I    -6.2    0.5    2.7
H    -5.5   -4.0    1.0
I    -4.1   -3.2    4.6
H     5.8    3.2    2.2
I    -6.8   -0.4   -1.6
I    -1.8    5.9    3.2
I     6.9   -0.5   -1.0
H     1.4   -4.1    5.5
I     2.9    5.8    2.7
P     5.0    0.0    5.2
H     6.0   -4.0    0.6
I     5.1   -3.2   -4.2
H     0.9    2.9    6.7
I    -2.2    6.9   -1.1
I     2.3    6.8   -1.7
H    -0.6   -3.2    6.6
H     6.2    4.0    0.7
I     5.0   -3.2    4.6
I     2.3   -0.5    7.1
I    -1.8   -6.7    3.2
I     2.9   -6.9    2.7
P     0.4   -0.0   -7.9
I    -4.4    3.1    5.9
H    -3.0    2.0   -7.1
I     0.5   -3.2   -7.3
I    -2.2   -0.4    7.7
I    -1.6    5.9   -5.4
I     4.7    3.1    5.9
I     7.5    0.5    3.3
P    -4.3   -6.3   -3.5
P    -4.3    6.3   -3.5
H     4.4   -3.3   -6.5
H    -7.5    2.2   -3.5
I    -6.2    0.4   -6.0
P     4.8    6.3   -3.5
P     4.9   -6.3   -3.5
H     3.0   -3.3   -7.5
H    -4.8   -3.3   -6.5
I    -1.6   -6.8   -5.4
H     0.7    8.2   -3.1
P    -8.8    0.0    0.9
H     4.5    1.8   -7.4
H    -0.9    8.4   -2.8
H    -4.6    1.8   -7.4
N    -3.8    2.3   -7.8
I     2.9    5.9   -6.0
I    -6.3    5.8    2.7
I     6.9   -5.8   -1.1
I     0.2    3.1   -8.5
H    -2.9   -8.6    0.7
I    -6.8   -5.8   -1.7
H    -4.1    4.2   -7.0
H    -7.5    4.0   -3.5
N     4.0   -3.6   -7.5
P    -4.2    6.3    5.2
I     7.5    0.6   -5.4
H    -3.2    8.7    0.6
P    -4.2   -6.4    5.2
H     8.2   -2.1   -4.0
N    -0.1    8.7   -3.5
H    -0.3    8.3   -4.4
I    -8.7   -3.2    1.6
H     3.6    8.6    1.0
C    -8.0    3.1   -3.9
H    -7.0    3.0    5.7
H     1.7   -8.6   -3.5
I     0.2   -9.5    0.1
I    -8.9    3.2    0.1
H    -0.7   -8.6   -3.8
I     2.9   -6.7   -6.0
I     2.3   -5.9    7.1
P     4.9    6.3    5.2
H    -3.5    1.8   -8.7
P     9.5    0.0    0.9
H     8.4    2.3   -3.8
H     3.8   -8.7    1.2
H     0.5   -8.2    4.9
H    -8.3   -2.2   -4.2
I     0.2    3.1    9.1
P     4.9   -6.4    5.2
H     6.1    2.0   -7.1
H    -9.0   -2.1   -2.5
H     4.0   -4.6   -7.4
C    -3.9    3.7   -8.0
H     5.1    4.2   -7.0
I     0.4    9.5    1.6
H    -8.1   -3.2    4.1
P     0.3   -0.1    9.7
I    -6.3   -6.9    2.7
H    -3.3   -3.4   -8.5
H     8.8    3.2   -2.4
H     8.2   -4.3   -2.8
H    -3.5    1.7    8.9
H    -8.4    3.2    3.7
N     5.4    2.3   -7.8
N    -5.2   -3.6   -7.5
H    -0.3   -9.5   -2.4
H    -7.7   -2.4    5.6
I    -6.8    6.8   -1.7
H     4.4   -3.5    8.1
H    -2.9    4.1   -8.4
H     9.2   -2.1   -2.5
H    -4.4   -2.0   -8.6
I     6.9    6.9   -1.1
I    -6.8   -0.5    7.1
H    -7.9    3.1   -5.0
H    -8.0    1.7    5.6
I     9.4    3.2    0.1
H     8.2   -2.3    5.1
H    -8.4   -4.4   -3.1
H     4.7   -2.0   -8.6
I    -2.3   -5.9    7.7
H    -4.8   -3.5    8.1
I     7.4    5.9    3.2
H    -1.0    8.6    5.1
N     8.9    3.2   -3.5
C     9.1   -2.5   -3.5
N    -0.2   -9.5   -3.5
C    -4.4   -3.1   -8.6
H     8.4    4.0   -3.8
I     2.3    6.8    7.1
I    -2.2   -0.3   -9.9
C    -9.2   -2.5   -3.5
N    -8.0    2.7    5.7
C    -3.4   -9.5    1.1
H    -5.2   -4.6   -7.4
P     0.3    6.3   -8.0
N    -8.2   -3.2    5.2
H     0.7   -9.5    3.7
N    -3.6    9.5    1.0
H    -5.3   -8.7    1.2
I     9.6   -3.2    1.6
H     8.5    3.1    4.8
P     0.3   -6.4   -8.0
H    -6.1   -3.3   -7.5
H    -4.4   -2.0    9.0
H    -9.4    3.2   -2.4
C     5.3    3.7   -8.0
H    -3.3   -3.4    9.1
C     4.8   -3.1   -8.6
H    -5.6    8.6    1.0
H    -3.3   -9.5    2.2
H    -3.6    9.5    2.0
H     1.4    8.6    5.5
C     1.2   -9.5   -3.9
H    -7.7   -4.1    5.5
H     4.0    9.5   -0.5
H     1.0    9.5    4.1
C     4.1    9.5    0.6
I     6.9   -0.4    7.7
H     4.7   -2.0    9.0
C     0.4   -9.2    4.7
H     4.2   -9.5   -0.3
H    -2.9    4.1    9.2
N     9.0   -4.0   -3.5
N     4.3   -9.5    0.8
C    -4.4   -3.1    9.0
H     8.2   -4.1    5.1
I    -2.3    6.7    7.7
N    -9.4    3.2   -3.5
I     7.4   -6.7    3.2
H     5.6    1.8   -8.7
H     4.4    3.9   -8.7
H     6.0    8.7    0.6
I    -6.2    5.9   -6.0
C    -8.8    3.4    4.7
H    -4.7    3.9   -8.7
H     6.2   -8.6    0.7
C     4.8   -3.1    9.0
N    -9.3   -4.0   -3.5
H     4.4    3.9    8.9
H     5.6    1.7    8.9
N    -4.8   -9.5    0.8
N    -3.8    2.2    9.8
H    -5.0   -9.5   -0.3
H    -0.7   -9.5    4.8
C     8.6   -3.2    5.5
C    -0.1   10.2   -3.5
I     2.3   -0.5  -10.5
I     0.4   -3.2   10.3
H    -4.7    3.9    8.9
I    -4.3   -9.5   -2.8
N     0.9    9.4    5.2
H     8.8   -4.4   -4.4
C    -5.1    9.5    0.6
H     5.8   -3.4   -8.5
H     1.2   -9.5   -5.0
H    -3.2   10.3    0.6
H    -5.1    9.5   -0.5
H    -2.9  -10.4    0.7
H    -9.9    2.3   -3.8
H     0.1   10.5   -2.5
P    -8.8   -6.3    0.9
P    -8.8    6.4    0.9
H    -8.7    4.5    4.9
I     7.5    5.9   -5.4
C    -0.5    9.5    5.5
I    -6.2   -6.7   -6.0
C    -3.9    3.7    9.6
H     9.9    3.2    3.7
I     4.8   -9.5   -2.8
H    -8.3    2.9    6.7
N     5.5    9.5    1.0
H     3.0   -3.3   10.1
H     4.4   -3.4   -9.5
H    10.0   -2.2   -4.2
H    -0.7  -10.3   -3.8
H   -10.1   -2.1   -4.0
H     3.6   10.4    1.0
H    -3.0    2.0   10.5
H     3.8  -10.3    1.2
H     1.7  -10.4   -3.5
C     9.5    3.4    4.7
I    -4.1    9.5   -4.2
C     5.7   -9.5    1.1
H    -4.8   -3.4   -9.5
H     5.6    9.5    2.0
H     6.2    4.1   -8.4
H     0.8   10.4   -4.2
H     9.9   -4.4   -3.1
H     4.5    1.8   10.2
I   -10.8    0.5    3.3
H   -10.0   -4.3   -2.8
H    -1.0   10.5   -4.0
H     8.6   -3.2    6.6
H    -9.9    4.0   -3.8
H    -4.6    1.8   10.2
H     0.9    2.9  -10.9
H    -9.5   -4.4   -4.4
I    -4.2    9.5    4.6
H     5.8   -3.4    9.1
H     5.8   -9.5    2.2
H    -9.8    3.1    4.8
N     5.4    2.2    9.8
P     9.5   -6.3    0.9
I   -11.4   -0.5   -1.0
H    -0.6   -3.2  -11.0
P     9.5    6.4    0.9
H    10.2   -3.2    4.1
H     2.2   -9.7    5.7
P     0.3    6.3    9.6
N     4.0   -3.6   10.1
I     7.5   -6.8   -5.4
I    -6.8   -5.9    7.1
C    10.3    3.1   -3.9
I     5.0    9.5   -4.2
P     0.3   -6.4    9.6
C     5.3    3.7    9.6
H    -0.6    9.4    6.6
H    10.8    2.2   -3.5
N     1.2  -10.0    5.7
H   -10.1   -2.3    5.1
C    -9.6   -3.2    5.5
H    -1.0   10.4    5.1
I    11.5   -0.4   -1.6
H     4.0    8.0   -7.4
I     5.0    9.5    4.6
H    -5.3  -10.3    1.2
H     9.6    4.5    4.9
I    -2.3   -5.9   -9.9
H    -4.0   -8.5   -7.0
H     1.4   10.3    5.6
N    10.1   -3.2    5.2
H     6.2    4.1    9.2
I    -8.7   -3.2   -7.3
H    10.3    1.7    5.6
P    -8.8   -0.0   -7.9
H    -5.5   10.4    1.0
H     4.0   -4.7   10.1
H     0.9   -9.8    6.7
H    -7.4   -8.6   -3.5
I     2.9    0.4   11.5
H    10.4    3.1   -5.0
I     6.9   -5.9    7.7
N    -5.2   -3.6   10.1
H     6.0   10.3    0.6
I    -6.8    6.8    7.1
I     0.4    9.5   -7.3
I    -4.4   -9.5    5.9
I     6.9   -0.3   -9.9
H    -4.1    4.2   10.6
H   -10.1   -4.1    5.1
H    10.8    4.0   -3.5
H     8.2    8.4   -2.8
I   -10.8    0.6   -5.4
N    10.3    2.7    5.7
H    -5.2    8.0   -7.4
H     5.1   -8.5   -7.0
H     6.2  -10.4    0.7
I     4.7   -9.5    5.9
H    10.6   -2.4    5.6
H    -8.4    8.2   -3.1
I    -2.3    6.8   -9.9
H    -9.7   -3.2    6.6
H     1.1    1.7  -12.0
I     2.3   -5.8  -10.5
H     4.3    9.4   -6.5
N     1.2    2.7  -11.9
H    -6.2   -3.3   10.1
H     6.1    2.0   10.5
H    -5.2   -4.7   10.1
I    -1.7    0.5   12.2
I     6.9    6.7    7.7
H   -12.1    2.3    0.7
H     4.4   -3.3   11.1
H     1.4   -2.4  -12.0
P     9.5   -0.0   -7.9
H    -2.9   -8.6   -8.4
I    12.1    0.5    2.7
H     3.0    9.4   -7.5
H     1.2  -11.0    5.6
H    10.0    2.9    6.7
H    -4.8    9.4   -6.5
N     4.0    9.1   -7.5
I    -2.2   12.2   -1.0
H     5.1    4.2   10.6
C    -0.5   -3.2  -12.0
I     9.6   -3.2   -7.3
H    -4.8   -3.3   11.1
H     2.2    3.0  -11.9
H   -12.3   -2.3    0.6
I    -6.8   -0.5  -10.5
I     2.3   12.3   -1.6
H    10.5   -4.1    5.5
