         400
 sphere cut out from bulk 
H     0.6    0.3   -0.4
C     0.3    1.4   -0.1
H     0.2    1.4    1.0
H    -1.8    1.0   -0.4
N    -1.0    1.7   -0.7
H     1.0    2.1   -0.4
H    -1.0    1.7   -1.7
H    -1.0   -2.4    0.3
H    -1.4    2.6   -0.4
H     0.7   -3.1    0.3
I     2.9   -1.5   -0.3
C    -0.3   -3.3   -0.0
I    -3.4   -0.7    0.2
H    -0.4   -3.4   -1.1
I     1.5    0.7    3.5
I    -0.7    1.7   -4.1
N    -0.8   -4.5    0.7
H    -0.7   -4.4    1.7
I     3.8    3.0    0.2
P     4.4    0.3    2.0
H     2.1    2.6   -3.5
H    -0.5    4.2    2.7
I    -2.1   -2.9   -3.5
H    -1.8   -4.7    0.4
H     0.8    2.9    4.2
I    -2.1    4.8    0.3
H    -0.2   -5.3    0.4
H     4.1    3.0   -2.2
H    -1.5    3.5    4.1
I    -0.1   -3.9    4.1
C    -0.7    4.3    3.8
C     2.8    3.3   -3.9
P    -5.0   -2.5   -2.0
N     0.5    3.9    4.5
H     4.5    2.0   -3.5
N     4.1    3.0   -3.2
P     1.5   -1.6    5.7
H     2.6    4.3   -3.6
P    -2.2   -0.6   -5.7
I    -4.3    2.5    3.7
P     5.3   -2.5   -2.0
P    -5.9    0.3    2.0
H    -0.4   -4.6   -4.3
H     1.3    4.6    4.2
I     4.5   -2.0    4.2
H     3.0    3.2   -5.0
I    -5.1   -0.2   -4.3
H    -2.9   -4.8    3.6
H    -1.0    5.3    4.1
I     5.2   -0.2   -4.3
I    -4.3   -5.2   -0.2
H     0.4    3.9    5.5
H     1.2   -5.2   -4.3
I     6.9   -0.7    0.2
I     3.6   -4.7   -3.7
H     4.9    3.7   -3.5
N     0.2   -5.4   -4.6
H    -0.3   -6.5   -2.8
I     0.2    6.1   -3.6
H    -5.8    2.0   -3.5
I     1.4   -7.0   -0.4
I    -6.6    3.0    0.2
H    -6.2    3.0   -2.2
H    -3.5    2.4    6.0
H    -4.8   -5.2    2.2
P    -1.2    4.4   -5.9
H    -5.4    3.7   -3.5
P    -5.0    5.2    1.9
I    -1.1   -0.5    7.4
H     5.1   -4.2    3.4
I     6.0    2.5    3.7
I    -5.8   -2.0    4.2
H     3.5    0.4   -6.6
H    -5.2   -4.2    3.4
N    -6.2    3.0   -3.2
I    -7.4   -1.5   -0.3
H    -2.6    1.4    7.0
I     0.2   -1.7   -7.4
C    -3.6   -5.5    3.9
P     5.3    5.2    1.9
C    -0.3   -6.6   -3.9
P    -2.3    7.1   -1.9
I     2.8    6.3    3.5
I    -3.8    5.3   -4.2
N    -4.9   -5.2    3.2
H     0.1   -5.5   -5.6
H     5.6   -5.2    2.2
I     6.0   -5.2   -0.2
N    -3.2    2.3    6.9
H    -1.3   -6.8   -4.2
N     5.4   -5.2    3.2
H    -3.3   -6.5    3.7
H     4.7   -5.9    3.4
H    -2.6    3.1    7.2
C     3.1    0.5   -7.7
H     2.5    1.3   -7.8
H    -3.9   -5.4    5.0
H     2.6   -0.5   -7.9
H    -4.4   -2.8    6.6
I    -2.9    2.1   -7.6
I     1.6    3.9   -7.4
H     0.3   -7.5   -4.2
H     8.5    1.0   -0.4
I     3.0    0.0    8.1
H     2.7   -3.4   -7.5
H     4.1   -4.7   -6.1
P     4.3   -7.4   -1.9
I    -0.1    3.9    7.9
H    -2.5   -2.3    8.1
I    -3.5    7.0    4.1
H     0.4    8.0    3.7
H    -5.7   -5.9    3.4
P     0.6   -6.6    5.9
I     2.2   -4.3    7.5
I    -6.7   -4.7   -3.7
I    -0.9   -8.3    3.5
C    -7.5    3.3   -3.9
H    -4.9    1.3    7.6
H     2.4    7.7   -4.2
I    -5.2    7.6   -0.4
I     5.2    7.6   -0.4
I     3.1   -7.6    4.1
H     4.1    7.1   -4.2
H     3.5    8.1   -2.8
C    -4.4    2.2    7.8
I    -3.8   -2.3   -8.1
H    -8.2    2.6   -3.5
H     6.0   -2.8    6.6
C    -4.5   -2.7    7.7
H     9.0    2.6   -0.4
H     6.8    2.4    6.0
H     2.2   -5.1   -7.5
I    -0.5    9.4   -0.2
H     5.4    1.3    7.6
I     6.5    5.3   -4.2
I     8.2   -2.9   -3.5
H    -7.4    3.2   -5.0
N     9.3    1.7   -0.7
C     3.0   -4.4   -7.8
H    -4.9   -1.7    7.9
C     3.4    7.9   -3.9
N    -3.3   -3.0    8.4
C     6.7   -5.5    3.9
H    -2.9   -4.0    8.1
H    -6.8    0.4   -6.6
I     8.2    4.8    0.3
N     4.3   -4.7   -7.1
H    -1.9    8.7    3.4
H    -9.3    2.1   -0.4
I    -8.8    0.7    3.5
H    -7.8    4.3   -3.6
H     7.4   -4.8    3.6
N     4.3    0.5   -8.5
H    -1.0    9.3    2.2
H     9.3    1.7   -1.7
H    -5.0    3.0    7.7
P     1.6   -9.3    1.9
H     9.3   -2.4    0.3
P    -6.0   -7.4   -1.9
H     5.0    1.3   -8.3
H     8.5   -4.7    0.4
H    -9.8    0.3   -0.4
H     5.0   -4.0   -7.4
H     5.3    3.0    7.7
H     5.5   -1.7    7.9
H     6.5   -5.4    5.0
H     4.9   -0.3   -8.5
I    -3.5   -8.4   -3.6
P     0.6    1.1    9.7
H    -6.2   -4.7   -6.1
C     0.1    9.0    3.9
I    -2.3   -6.2    7.4
H     3.5    9.2    0.4
P     8.1   -0.6   -5.7
H    -5.3   -4.0   -7.4
H    -5.4    1.3   -8.3
N    -1.2    9.4    3.2
C     5.8   -2.7    7.7
H    -4.0    2.1    8.9
I    -0.6   -6.0   -7.9
H     1.9    9.8    0.4
H     5.0   -3.4    8.0
C     5.9    2.2    7.8
H    -5.4   -0.3   -8.5
H    -9.6   -3.1    0.3
C   -10.0    1.4   -0.1
H    -5.3   -3.4    8.0
N     7.1    2.3    6.9
H     7.0   -6.5    3.7
H   -10.1    1.4    1.0
H     8.8    3.5    4.1
H    -6.2    7.1   -4.2
H     4.6   -5.7   -7.3
H     4.0    0.7   -9.5
H    -0.1    9.1    5.0
I    -7.5    6.3    3.5
P    -1.2   -3.4   -9.8
N    -6.0    0.5   -8.5
H     3.2   -4.5   -8.9
H    -3.4   -3.0    9.4
H     0.9    9.8    3.6
N    -6.1   -4.7   -7.1
N     2.9   10.0    0.7
I     2.8   -9.2   -4.2
H    -2.4    2.2   -9.9
H     7.7    1.4    7.0
C    -7.2    0.5   -7.7
C    10.0   -3.3   -0.0
N     9.5   -4.5    0.7
H     9.9   -3.4   -1.1
P    -8.8   -1.6    5.7
I    -1.4    6.7   -8.1
I     9.6    1.7   -4.1
I     6.9    7.0    4.1
H    10.5    1.4    1.0
I     6.5   -2.3   -8.1
C    10.6    1.4   -0.1
I     4.5   -9.7    0.3
H     9.6   -4.4    1.7
H     3.0   10.2    1.7
I     4.4    5.6    8.1
H    -9.5    2.9    4.2
I     7.4    2.1   -7.6
P     4.4    8.0    5.9
H    10.9    0.3   -0.4
I    -7.3    0.0    8.1
H    -5.7   -5.7   -7.3
H    -1.2  -10.2   -3.6
I    -3.0    9.8   -3.7
H    -6.8    8.1   -2.8
P     8.1    7.1   -1.9
N     3.9    9.2   -4.6
H     2.8   -3.8    9.9
H     9.8    4.2    2.7
H    -1.5   10.3    3.4
H    -9.0    4.6    4.2
H     7.7    3.1    7.2
H    -7.7   -0.5   -7.9
H     6.3    2.1    8.9
H    -2.5  -10.0    4.2
C     9.6    4.3    3.8
H    -7.8    1.3   -7.8
C   -10.7   -3.3   -0.0
C    -6.9    7.9   -3.9
H    -4.8   -9.3    4.1
I    -7.2   -7.6    4.1
H    -7.6   -3.4   -7.5
I     1.4    8.4    7.4
H     3.8    9.0   -5.6
H   -10.7   -3.4   -1.1
I    -8.9   -7.0   -0.4
H     3.3   10.0   -4.3
I    -5.8   -9.7    0.3
N     7.0   -3.0    8.4
H    -9.2   -5.2   -4.3
H     9.3    5.3    4.1
I     6.8   -8.4   -3.6
H     4.9    9.4   -4.3
H    10.1   -5.3    0.4
N    -2.3    2.2  -11.0
H    11.0   -3.1    0.3
H    -6.3    0.7   -9.5
P     1.5    6.1    9.6
H    -6.8    9.2    0.4
H    -1.9    1.2  -11.2
N    -9.8    3.9    4.5
H     7.8   -2.3    8.1
I    -5.9    5.6    8.1
N   -11.4    1.7   -0.7
H     1.1  -10.9   -3.5
H    11.3    2.1   -0.4
P     1.6    6.2   -9.6
H    -4.3  -10.4    2.7
H   -11.3    1.7   -1.7
H     5.5   -9.3    4.1
I     0.0  -11.6    0.2
I    -2.3    1.5   11.2
H   -11.3   -2.4    0.3
P    -6.0    8.0    5.9
C    -7.3   -4.4   -7.8
P     9.1    4.4   -5.9
H    -5.4    9.4   -4.3
H     7.4   -4.0    8.1
H     3.3   11.1   -1.1
I    10.2   -3.9    4.1
H    -2.0    8.9   -7.3
H     9.9   -4.6   -4.3
H    -1.5    2.9  -11.2
C     3.4   11.3   -0.0
H     0.3  -11.6   -2.2
H   -10.5   -5.3    0.4
H     2.3   -2.9   11.2
I   -10.4   -3.9    4.1
H    -7.9    7.7   -4.2
H    -2.4    9.9   -6.1
I     9.3   -0.5    7.4
C    -4.5  -10.3    3.8
I   -11.0    1.7   -4.1
I    -8.1   -4.3    7.5
N     2.9   -3.7   10.9
C    -0.9  -11.3   -3.9
H   -10.9    4.2    2.7
H   -11.7    2.6   -0.4
H   -11.0   -4.4    1.7
N    -3.2  -10.6    4.5
I     3.7   10.7    4.1
I     1.7   -3.8  -11.3
I     0.7   -1.2   11.9
N   -11.1   -4.5    0.7
H    -9.9    3.9    5.5
N     0.4  -11.6   -3.2
H     9.0   -6.8   -4.2
I     0.7   -8.9    8.1
H     6.9   -3.0    9.4
I     2.1    3.4   11.4
I     3.2    8.5   -7.9
I    -1.3   -1.0  -12.0
N    -6.4    9.2   -4.6
I    -8.7    3.9   -7.4
H   -12.1    1.0   -0.4
H    -8.1   -5.1   -7.5
H    -7.1   -4.5   -8.9
I     1.6   11.6   -3.5
H     4.4   11.4    0.3
P    -1.2   12.1   -2.0
I     3.2    0.8  -11.8
H    11.2    2.9    4.2
H     6.0  -10.4    2.7
H    10.1   -6.5   -2.8
I    11.8    0.7    3.5
I   -10.1    6.1   -3.6
H    -4.3    1.8  -11.4
H     3.9   -3.4   11.2
N    -2.3    9.8   -7.1
N    10.8    3.9    4.5
N   -10.1   -5.4   -4.6
H    -0.8  -11.3   -5.0
I    -5.1   -7.9   -8.1
H     2.8   12.1    0.3
H    -3.4  -10.6    5.5
C     5.8  -10.3    3.8
C   -11.1    4.3    3.8
I     5.2   -7.9   -8.1
H     1.5   -5.1   11.3
H   -10.8   -4.6   -4.3
H    -6.5    9.0   -5.6
N    -7.4   10.0    0.7
C    -3.5    2.5  -11.7
I     8.0   -6.2    7.4
H    -4.6    5.0   10.5
H    -3.8    3.5  -11.4
H     8.4    8.7    3.4
H    -1.6  -12.0   -3.5
I    -7.5   -9.2   -4.2
H    -7.3   10.2    1.7
C    10.0   -6.6   -3.9
I   -10.1   -1.7   -7.4
N    10.5   -5.4   -4.6
H    10.7    3.9    5.5
H    -2.9  -11.6    4.2
I    10.5    6.1   -3.6
H   -10.6   -6.5   -2.8
H    -2.7  -12.5   -0.4
I     2.3  -12.0    3.7
P    -5.0  -10.2   -5.9
H     5.1  -11.0    4.1
I    -3.9   -3.0   11.8
H    -4.3    9.4   -7.5
I     0.0    4.6  -12.0
I     7.4    9.8   -3.7
C     2.5   -4.9   11.6
P    -2.2   -8.3   -9.6
H    -5.2  -11.0    4.1
H    -5.9   11.4    0.3
H    -3.1    3.7   12.0
P    -8.7   -9.3    1.9
H     7.9    2.2   -9.9
H    -8.4    9.8    0.4
H   -10.3   -5.5   -5.6
H    -7.0   10.0   -4.3
P     5.3  -10.2   -5.9
H    -1.6   10.5   -7.4
H    -7.5   -3.8    9.9
H    -5.1  -11.9   -0.4
H     5.7    5.0   10.5
I    10.5   -1.7   -7.4
P    -2.2   -8.5    9.6
I     9.4   -8.3    3.5
H   -11.8    3.5    4.1
H    10.4   -5.5   -5.6
H     5.2  -11.9   -0.4
H   -12.1   -4.7    0.4
H     6.0    1.8  -11.4
H     3.1   -5.7   11.3
I    -2.8   -5.6  -11.4
H     0.7  -12.5   -3.5
C   -10.6   -6.6   -3.9
P    -9.7   -6.6    5.9
H   -10.0   -7.5   -4.2
I    -2.1  -10.6   -7.4
