         400
 sphere cut out from bulk 
H    -1.1    0.5   -1.4
H     0.8   -1.1   -1.4
N    -0.5    0.3   -2.3
C     0.2   -1.0   -2.3
H     0.2    1.1   -2.3
I     2.0    1.4    1.4
H    -0.6   -1.8   -2.3
I    -2.4    1.9    0.4
H     0.4    0.4    3.2
I    -1.9   -2.7    0.4
H    -1.1    0.5   -3.1
H     0.8   -1.0   -3.2
H    -0.1   -2.0    3.1
N    -0.0   -0.0    4.0
P     0.2    4.0    0.8
H    -1.1    0.0    4.0
C     0.3   -1.5    4.0
I     2.6   -3.2    1.3
I     0.8    3.7   -2.3
P    -4.4   -0.6    0.8
H     1.4   -1.6    4.0
P     4.5   -0.6    0.8
I     3.9   -0.7   -2.3
H     0.4    0.4    4.8
P     0.1   -5.2    0.8
H    -0.1   -2.0    4.9
H    -3.7    3.1    2.4
I    -3.7   -0.5    4.0
I    -4.9   -0.7   -2.3
H    -3.7    3.9   -1.3
H     3.3    3.6   -2.8
I    -0.5    4.0    4.0
H    -3.1   -4.1   -2.5
H     4.2   -3.7   -1.7
H     3.2    2.9    3.9
I    -2.4    1.9   -5.0
I     0.6   -5.4   -2.3
I    -1.9   -2.7   -5.0
H    -4.7   -3.7   -1.7
H    -3.0    4.2    3.4
N    -3.9    3.9    3.1
H    -4.1    3.2   -3.6
H    -3.0    5.0   -2.5
C    -4.0   -4.5   -2.1
C    -3.9    4.6   -2.1
I     2.0    1.3   -6.0
H     5.1    3.1    2.4
I    -0.6   -5.1    4.0
H     5.1    3.9   -1.3
I     5.2   -0.5    4.0
N     4.2    4.0   -3.2
H    -3.8   -5.2   -1.3
I     2.7    5.9    1.3
H    -4.0    2.5    4.7
I    -1.7    6.5    0.4
H    -3.1   -4.9    3.4
H     4.3   -4.5    2.7
I     6.5    1.9    0.4
P     0.1    3.9   -5.5
H     4.8    3.2   -3.6
C     4.2    3.3    4.3
N    -4.6    4.0   -3.2
C     4.8   -4.5   -2.1
H     4.4    4.6    2.7
H    -4.5    4.6    2.7
H    -4.6   -4.5    2.7
H     3.2   -5.5   -2.8
N     4.9    3.9    3.1
C     4.9    4.6   -2.1
P    -4.4   -0.7   -5.5
H     3.9   -4.5   -3.9
I     2.0    1.3    6.7
I    -6.8    1.4    1.4
C    -4.7    3.3    4.3
H     4.3    5.4   -1.7
P     4.5   -0.7   -5.5
I    -6.2   -3.2    1.3
I     2.5   -3.3   -5.8
H     4.8    2.5    4.7
H    -5.6    3.6   -2.8
H     4.0    4.6   -3.9
H    -4.6    5.4   -1.7
N     4.1   -5.2   -3.2
N    -4.0   -5.3    3.1
H     5.0   -5.2   -1.3
H    -5.6    2.9    3.9
H     5.7   -4.1   -2.5
I     7.0   -2.7    0.4
H    -3.8   -6.0    2.4
P    -0.1   -5.2   -5.5
H     4.0    4.1    5.0
I    -2.5   -7.2    0.4
N    -4.8   -5.2   -3.2
H    -0.5    7.3   -2.3
H    -5.0   -4.5   -3.9
N     4.8   -5.3    3.1
H    -4.9    4.6   -3.9
H     0.1    7.2    3.1
H     0.4    0.4   -7.8
H     7.8    0.5   -1.4
I     2.5   -3.3    6.8
H    -0.1   -2.0   -7.7
H     5.9    4.2    3.4
H     3.1   -6.2    3.9
H    -4.8    4.1    5.0
H    -4.2   -5.9   -3.6
H     5.9    5.0   -2.5
I     1.9   -7.8    1.4
H     3.9   -5.1    5.0
P     0.1    3.9    7.1
H     5.0   -6.0    2.4
H    -8.0   -1.1   -1.4
H     0.9    8.0   -1.4
I    -2.4    1.9    7.6
H     5.7   -4.9    3.4
C     4.1   -5.8    4.3
I    -1.9   -2.7    7.6
H     0.1   -8.0   -2.3
H     7.7    0.5   -3.1
H     4.7   -5.9   -3.6
I    -1.8    6.4   -5.0
I     6.4    1.9   -5.0
P    -4.4   -0.7    7.1
H    -5.7   -5.5   -2.8
P     4.5   -0.7    7.1
C     0.3    8.1   -2.3
H    -7.4   -1.6    4.0
I    -6.1    5.9    1.3
C     0.5    7.6    4.0
N    -0.0   -0.0   -8.6
N     8.3    0.3   -2.3
H    -4.9   -5.1    5.0
C    -4.8   -5.8    4.3
I     2.6    5.9   -5.8
H     0.0    7.2    4.9
H     1.6    7.6    4.0
H    -1.1    0.0   -8.6
H     0.9    8.1   -3.2
H     7.8    0.0    4.0
H    -8.1   -1.0   -3.2
H     8.3   -1.8   -2.3
C     0.3   -1.5   -8.6
P    -0.0   -5.2    7.1
H    -1.2   -8.7   -1.4
H     1.4   -1.6   -8.6
I     6.9   -2.7   -5.0
C    -8.7   -1.0   -2.3
H    -8.7    1.1   -2.3
H    -8.5    0.4    3.2
N    -0.6   -8.8   -2.3
H    -4.2   -6.6    4.7
I    -2.5   -7.2   -5.0
I    -8.1    3.7   -2.3
I    -6.3   -3.3   -5.8
I    -6.9    1.3   -6.0
H    -4.0    2.5   -7.9
H     0.3   -8.7    3.2
H    -1.2   -8.7   -3.1
H    -5.7   -6.2    3.9
I     2.6    5.9    6.8
C     9.0   -1.0   -2.3
H     9.0    1.1   -2.3
H     4.7   -6.6    4.7
I    -3.7   -0.5   -8.6
H     0.4    0.4   -9.5
H     0.8   -1.0    9.4
C    -8.5   -1.5    4.0
H     8.8   -2.0    3.1
P    -4.3    8.5    0.8
P    -8.6    4.0    0.8
H     4.0    4.1   -7.6
I    -0.5    4.0   -8.6
H    -1.1    0.5    9.5
H     4.8    2.5   -7.9
I     7.1    6.5    0.4
I     6.4   -7.2    0.4
H    -8.9   -2.0    3.1
I     4.0    8.4   -2.3
N    -9.4    0.3   -2.3
P     4.6    8.5    0.8
N     8.8   -0.0    4.0
I    -6.9    1.3    6.7
H    -1.0    9.6   -1.4
H    -0.1   -2.0   -9.5
N    -0.4    9.4   -2.3
N    -8.9   -0.0    4.0
H     9.2    0.4    3.2
H     3.2    2.9   -8.7
H    -8.5    0.4    4.8
H     9.7   -1.1   -1.4
I    -6.3   -3.3    6.8
H    -9.4   -1.8   -2.3
H    -4.8    4.1   -7.6
N     0.1    9.1    4.0
P     9.1    4.0    0.8
C     4.2    3.3   -8.4
H     0.2   -8.7    4.8
H     3.9   -5.1   -7.6
I    -4.8    8.4   -2.3
I     1.8   -7.8   -6.0
H    -1.2   -9.1    4.0
N    -0.1   -9.2    4.0
H    -1.0    9.2    4.0
H    -9.9    0.5   -1.4
H     0.5    9.5    3.2
I    -0.6   -5.1   -8.6
I     5.2   -0.5   -8.6
I     8.4    4.0    4.0
I    -8.2   -5.4   -2.3
H    -1.0    9.6   -3.1
C    -4.7    3.3   -8.4
C     9.2   -1.5    4.0
I    -1.8    6.4    7.6
I    -3.5    8.6    4.0
I     6.4    1.9    7.6
P    -8.7   -5.2    0.8
H     9.6   -1.0   -3.2
H     8.8   -2.0    4.9
H     0.7  -10.2   -1.4
I    -6.2    5.9   -5.8
P     8.9   -5.2    0.8
H    -8.9   -2.0    4.9
N    -0.5    0.3   10.3
C     0.2   -1.0   10.3
C     0.1  -10.1   -2.3
H     0.2    1.1   10.3
H     9.2    0.4    4.8
H    -4.9   -5.1   -7.6
H    -4.1    3.2    9.0
I     1.8   -7.8    6.7
H   -10.0    0.5   -3.1
H    -0.6   -1.8   10.3
I     8.2   -5.1    4.0
H     0.3   10.2   -2.3
I    -6.9   -7.8    1.4
H     3.9   -4.5    8.7
I     9.6    3.7   -2.3
H     0.0    7.2   -7.7
H    -3.0    4.2   -9.2
I     6.9   -2.7    7.6
H     4.0    4.6    8.7
H    -9.9    0.0    4.0
H     0.7  -10.2   -3.2
H     4.8    3.2    9.0
H     0.5    9.5    4.8
P     4.4   -9.8    0.8
I     7.0    6.4   -5.0
P    -4.5   -9.8    0.8
I     2.1   10.5    1.4
I     3.8   -9.8   -2.3
H    -5.6    2.9   -8.7
I     6.3   -7.2   -5.0
I    -2.5   -7.2    7.6
H    -3.1   -4.9   -9.2
I     5.3    8.6    4.0
I    -9.3    4.0    4.0
I    -6.2    5.9    6.8
P    -4.3    8.4   -5.5
H     3.3    3.6    9.8
I     0.8    3.7   10.3
N    -3.9    3.9   -9.5
H    -5.0   -4.5    8.7
C     4.1   -5.9   -8.4
H    -4.9    4.6    8.7
I    10.9    1.4    1.4
I   -10.7   -2.7    0.4
P     4.6    8.4   -5.5
I     3.9   -0.7   10.3
I    -3.8   -9.6    4.0
P    -8.8    3.9   -5.5
N     4.2    4.0    9.5
H    10.3   -1.6    4.0
H    -0.7  -10.9   -2.3
H    -4.2   -6.6   -7.9
I     9.5   -5.4   -2.3
P     8.9    3.9   -5.5
H     3.1   -6.2   -8.7
H    -7.3    7.6    4.0
H    -1.1    0.5   11.2
I    -5.0   -9.8   -2.3
N    -4.6    4.0    9.5
I    -2.3   11.0    0.4
C    -4.8   -5.9   -8.4
H     0.8   -1.1   11.2
H    -3.7    3.1  -10.2
C     0.2  -10.6    4.0
H     4.7   -6.6   -7.9
H     8.4    7.3   -2.3
H    -7.9    8.0   -1.4
I   -11.2    1.9    0.4
N     4.9    3.9   -9.5
H    -3.1   -4.1   10.2
I    -9.4   -5.1    4.0
I    -4.9   -0.7   10.3
H    -7.4   -1.6   -8.6
H     1.3  -10.7    4.0
H    -0.2  -11.1    3.1
N     4.1   -5.2    9.5
H    -8.5    0.4   -7.8
I     2.0    1.4  -11.3
C     0.5    7.6   -8.6
H     1.6    7.6   -8.6
I     5.1   -9.6    4.0
H    -4.2   -5.9    9.0
P     8.8   -5.2   -5.5
N    -4.0   -5.3   -9.5
H     7.8    0.0   -8.6
H     7.6   -8.7   -1.4
P    -8.9   -5.2   -5.5
I     0.6   -5.4   10.3
H     0.2   -8.7   -7.8
H     3.2   -5.5    9.8
H     5.9    4.2   -9.2
H    -8.8    7.2    3.1
H     4.3   -4.5  -10.0
H     4.7   -5.9    9.0
H    -3.0    5.0   10.2
H    -7.9    8.1   -3.2
N    -4.8   -5.2    9.5
H    -5.6    3.6    9.8
H     4.4    4.6  -10.0
P    -4.3    8.4    7.1
H     8.9    7.2    3.1
H     8.8   -2.0   -7.7
H    -4.5    4.6  -10.0
H    -4.6   -4.5  -10.0
H     5.1    3.1  -10.2
N     4.8   -5.3   -9.5
H     5.7   -4.9   -9.2
H     0.1    7.2   -9.5
H     7.6   -8.7   -3.1
P     4.6    8.4    7.1
I    -2.0  -11.8    0.4
I    11.4   -3.2    1.3
H    -8.9   -2.0   -7.7
P    -8.8    3.9    7.1
C    -8.5    8.1   -2.3
C    -8.4    7.6    4.0
I    -7.0   -7.8   -6.0
P     4.3   -9.8   -5.5
H     9.2    0.4   -7.8
P     8.9    3.9    7.1
H    -9.3    7.3   -2.3
I     2.6   -3.2  -11.4
H    -8.8   -8.0   -2.3
H    -0.2  -11.1    4.9
P    -4.5   -9.8   -5.5
H    -5.7   -6.2   -8.7
C    -4.0   -4.5   10.6
I   -10.8   -2.7   -5.0
H     8.9   -8.0   -2.3
I     7.0    6.4    7.6
C    -8.5   -1.5   -8.6
C    -3.9    4.6   10.6
I     2.1   10.4   -6.0
N     8.2   -8.8   -2.3
H     7.7    0.5    9.5
I     6.3   -7.2    7.6
I    -2.3   11.0   -5.0
H     4.2   -3.7   11.0
H     0.5    9.5   -7.8
N     8.8   -0.0   -8.6
H    -8.8    7.2    4.9
N    -8.9   -0.0   -8.6
H     5.7   -4.1   10.2
I    10.8    1.3   -6.0
I   -10.6    6.5    0.4
I    -7.0   -7.8    6.7
H     0.9    8.1    9.4
H     8.9    7.2    4.9
H    -8.1   -1.0    9.4
C     9.1    8.1   -2.3
P     8.8   -5.2    7.1
C     4.8   -4.5   10.6
I   -11.3    1.9   -5.0
H    -3.8   -6.0  -10.2
P     0.2    4.0  -11.8
H     7.9    9.6   -1.4
H    -4.7   -3.7   11.0
I    -6.7   10.5    1.4
P    -8.9   -5.2    7.1
N     0.1    9.1   -8.6
H     7.7   -9.1    4.0
C     4.9    4.6   10.6
H    -3.7    3.9   11.4
I     2.1   10.4    6.7
I    -2.4    1.9  -12.2
H    -1.2   -9.1   -8.6
N    -0.1   -9.2   -8.6
H    -5.7   -5.5    9.8
P    -4.4   -0.6  -11.8
H    -8.6   -8.7    3.2
I    -1.9   -2.7  -12.2
H    -1.0    9.2   -8.6
P     4.5   -0.6  -11.8
I     2.5  -12.3    1.3
I     8.4    4.0   -8.6
H    -0.5    7.3   10.3
C     9.3    7.6    4.0
C     9.2   -1.5   -8.6
