         400
 sphere cut out from bulk 
H     0.1    1.9    0.3
H    -0.5    1.8   -1.3
N    -0.7    2.3   -0.3
I     1.5    0.6    1.8
H    -1.6    1.9    0.0
I    -0.3    0.5   -3.3
H    -0.2    0.1    3.5
H     2.8    0.8   -2.1
H     0.1   -3.6    0.1
I    -3.6    0.5    0.5
C    -0.7    3.8   -0.4
H    -1.7   -3.6    0.3
H    -0.9   -3.6   -1.3
C    -0.8   -3.9   -0.3
H     0.2    4.1   -0.9
H    -0.8    4.2    0.6
H     3.2   -0.8   -2.8
C     3.3    0.3   -3.0
H    -1.6    4.1   -1.1
H    -4.0    0.4   -2.0
N    -0.7   -0.1    4.4
H    -1.7   -0.4    4.2
I     3.2   -3.4   -0.4
P     3.8   -1.8    2.3
H    -0.2   -1.0    4.8
H     2.9    0.6   -3.9
N    -4.4    0.7   -2.9
P     4.0    2.7    2.4
H    -3.9    0.3   -3.7
H    -1.1    1.9    4.9
I    -2.8   -3.4    3.2
I     3.2    4.4   -0.2
N    -0.8   -5.4   -0.3
C    -0.6    1.0    5.4
I     1.7   -3.1    4.3
H    -4.3    1.7   -3.1
H     5.2    0.4   -2.0
N     4.7    0.7   -2.9
I     5.6    0.5    0.5
H     0.4    1.2    5.5
I    -2.7   -3.5   -3.8
I    -2.5    4.3    3.0
H    -0.7   -5.8    0.7
H    -0.1   -5.8   -0.9
P    -0.8   -1.8   -5.6
H     4.8    1.7   -3.1
P    -5.3   -1.8    2.3
H    -1.7   -5.8   -0.6
I     1.8   -3.4   -4.9
I    -3.1    4.0   -3.7
P    -5.2    2.7    2.4
P    -0.9    2.7   -5.7
I    -4.4    0.4    4.6
H     5.3    0.3   -3.7
H    -1.1    0.7    6.3
I     2.1    4.4    4.3
C    -5.9    0.3   -3.0
H    -5.9   -0.8   -2.8
I     4.8    0.4    4.6
I     1.6    4.4   -4.7
H    -6.4    0.8   -2.1
I    -6.0   -3.4   -0.4
P     3.8   -5.0   -3.0
I    -3.2    0.2   -6.2
P    -0.7   -5.0    5.0
I     0.8    0.4   -7.3
H    -6.3    0.6   -3.9
I    -6.0    4.4   -0.2
H     3.2    6.6    1.2
P     3.7    5.9   -2.9
I     0.0   -7.1    2.7
I     1.5   -7.2   -2.2
P    -0.6    5.9    4.9
H    -1.1   -6.3   -4.4
H     7.6    1.9    0.0
I    -7.6    0.6    1.8
H     4.2   -0.8    6.7
I     6.4   -3.4    3.2
P    -5.4   -5.0   -3.0
H     2.3   -7.5    1.7
I     6.1    4.0   -3.7
H     3.1   -3.0    6.9
I    -3.7   -7.2   -1.2
H     3.7   -7.3    0.7
I     6.5   -3.5   -3.8
H     7.5   -3.6    0.3
H    -5.0   -0.8    6.7
N     3.3    7.6    1.5
H     4.2   -6.6    3.0
H     2.3    7.9    1.7
H     0.4   -6.4   -5.4
I     6.6    4.3    3.0
H     3.1   -0.8    7.9
H     2.8   -0.9   -8.0
P    -5.5    5.9   -2.9
H     7.4   -0.4    4.2
I     5.9    0.2   -6.2
N     3.3   -7.8    1.5
I    -1.3   -3.5    7.8
C    -0.6   -6.8   -5.2
I     1.5    8.2   -2.2
N     4.0   -1.2    7.6
H     7.6    4.1   -1.1
I     1.1    0.5    8.6
I     0.1    8.3    2.7
H    -4.0    7.3    2.5
H     3.5   -3.2   -7.4
H     3.7    7.1    3.5
N     8.5    2.3   -0.3
H    -5.0   -6.6    3.0
I    -1.3    4.3    7.6
H    -4.3   -3.1    7.2
H     8.6    1.8   -1.3
H     3.7    8.1    0.7
H     4.4   -0.9   -7.7
H    -5.9    6.6    1.2
H     3.8    4.5    6.7
C     3.9   -2.7    7.6
H    -1.5   -5.7   -6.7
H    -0.5    7.5   -4.9
I    -3.7    8.2   -1.2
I    -1.6   -3.6   -8.2
H     8.2   -3.6   -1.3
H    -4.7   -0.9   -7.7
I     5.5   -7.2   -1.2
H    -5.4   -7.3    0.7
I    -7.5   -3.1    4.3
C     4.1   -7.7    2.7
C     4.1    7.7    2.7
H     2.8    4.4   -7.5
C     8.3   -3.9   -0.3
N     3.7   -1.3   -8.4
H     4.9   -3.1    7.2
C     8.4    3.8   -0.4
H     5.1    7.3    2.5
N    -5.2   -1.2    7.6
H    -9.1    1.9    0.3
H    -0.6   -7.9   -4.9
H     8.3    4.2    0.6
I    -7.1    4.4    4.3
H    -4.0   -8.1    2.5
H    -4.4   -0.8    8.2
N    -1.5   -6.7   -6.4
I    -7.3   -3.4   -4.9
H     9.2    1.9    0.3
H     7.4   -5.8   -0.6
H     3.2   -8.8    1.2
I     8.9    0.5   -3.3
I    -1.6    4.2   -8.4
H     4.7   -0.8    8.2
N     8.4   -0.1    4.4
C     3.6   -2.8   -8.4
H    -0.1    9.5   -0.9
C    -5.0    7.7    2.7
C    -5.0   -7.7    2.7
C    -5.2   -2.7    7.6
H     8.9    0.1    3.5
H     8.0    1.9    4.9
H    -0.6    9.6    0.7
H    -5.5    7.1    3.5
H    -6.0   -3.0    6.9
N    -5.9    7.6    1.5
H     3.7   -8.2    3.5
H    -9.0   -3.6    0.1
H    -1.7    9.5   -0.6
H    -5.4    4.5    6.7
H    -2.4   -7.0   -6.2
I    -3.0   -7.3    5.7
H    -5.4    8.1    0.7
H    -1.4    0.7   -9.6
H    -5.7   -3.2   -7.4
H    -8.9    4.1   -0.9
H     3.8   -3.1    8.6
N    -5.9   -7.8    1.5
H     5.1   -8.1    2.5
I     5.5    8.2   -1.2
H    -9.7    1.8   -1.3
N     8.3   -5.4   -0.3
I    -7.6    4.4   -4.7
H     2.8   -3.1   -9.0
H     9.3   -3.6    0.1
C     3.9    4.9    7.8
N    -0.8    9.9   -0.3
I     1.0   -7.3    6.8
H    -6.1   -0.8    7.9
I    -9.5    0.5   -3.3
C    -0.6    8.5   -5.2
H    -9.4    0.1    3.5
H     3.1    4.5    8.4
H     4.6    4.4   -7.8
H    -4.6    4.4   -7.8
N    -5.5   -1.3   -8.4
N    -9.8    2.3   -0.3
I     4.4   -7.4   -5.3
H     3.9   -0.9   -9.3
C     8.5    1.0    5.4
C     3.6    4.8   -8.2
H     4.2    8.8    3.0
I    -2.9    0.3    9.7
H    -1.1    9.1   -4.4
H     8.9   -1.0    4.8
P     8.4   -1.8   -5.6
I    -4.7   -7.4   -5.3
H     8.1    0.7    6.3
H    -6.8   -7.5    1.7
H    -1.0   -7.2   -7.2
H    -4.3    4.5    8.2
H     9.4    4.1   -0.9
I    -2.9    8.1    5.7
H    -6.4   -0.9   -8.0
H     8.5   -5.8    0.7
H    -4.6   -3.2   -8.8
P     8.2    2.7   -5.7
H     4.6   -3.2   -8.8
H    -8.7    1.2    5.5
C    -5.5   -2.8   -8.4
H     3.0    6.8    7.4
H     0.4    8.9   -5.4
H     0.1    1.2  -10.4
H    -4.9    8.8    3.0
P    -0.5   -1.7   10.4
H    -5.5   -8.2    3.5
H     4.9    4.5    8.2
C    -5.2    4.9    7.8
I     4.4    8.0   -5.3
H    -9.4   -1.0    4.8
C    -9.9    3.8   -0.4
H    -5.4   -3.1    8.6
H    -6.8    7.9    1.7
P     3.7   -9.5   -2.9
H     3.8    6.7   -7.3
P    -0.6    2.8   10.2
I     1.0    8.1    6.8
C    -0.9    0.9  -10.6
I    -4.7    8.0   -5.3
H    -2.4    8.3   -6.2
H    -6.0   -8.8    1.2
P    -0.6   -9.5    4.9
H    -5.3   -0.9   -9.3
C   -10.0   -3.9   -0.3
N     3.9    6.4    7.7
I    -7.7   -7.2   -2.2
H    -4.5    6.7    7.1
H     3.5    4.4   -9.2
H   -10.1   -3.6   -1.3
H     9.0   -5.8   -0.9
N    -9.9   -0.1    4.4
H    -6.4    4.4   -7.5
H     4.6    6.7    7.1
H   -10.0    4.2    0.6
I    10.7    0.6    1.8
H    -1.2   -5.6    9.2
H   -10.7    1.9    0.0
N    -1.4    8.7   -6.4
H    -1.0    8.2   -7.2
N     3.6    6.3   -8.2
C    -5.5    4.8   -8.2
H    -9.3   -5.8   -0.9
P     8.4   -5.0    5.0
H     8.1   -6.3   -4.4
I    -8.3    0.4   -7.3
I     6.2   -7.3    5.7
H     9.6    1.2    5.5
H     2.7    6.7   -8.6
C    -9.8    1.0    5.4
H    -0.5   -1.1  -11.2
H    -0.8  -11.2    0.6
H    -5.4    6.7   -7.3
H    -1.4    1.8  -11.0
N    -5.2    6.4    7.7
H    -0.7   -7.1    8.7
H     0.2  -11.3   -0.9
H    -6.1    4.5    8.4
P    -5.5   -9.5   -2.9
N   -10.0   -5.4   -0.3
H   -10.8   -3.6    0.3
I     3.2  -11.0   -0.2
H    -9.8   -5.8    0.7
H    -6.3   -3.1   -9.0
P     3.8   10.4   -3.0
I    -7.7    8.2   -2.2
C    -0.8   11.4   -0.3
H    -1.6  -11.3   -1.1
P     8.5    5.9    4.9
H   -10.7    4.1   -1.1
H   -10.3    1.9    4.9
P    -9.9   -1.8   -5.6
P    -0.7   10.4    5.0
I     6.2    0.3    9.7
N    -1.0   -0.2  -11.5
H     6.7   -7.0   -6.2
I     7.9   -3.5    7.8
C    -0.7  -11.6   -0.4
N    -1.2   -6.6    9.5
I     6.2    8.1    5.7
H   -10.9   -0.4    4.2
H     7.6   -5.7   -6.7
H    -5.7    4.4   -9.2
I     7.6   -3.6   -8.2
H     4.1    6.8    8.7
N    -5.5    6.3   -8.2
H     3.0   -8.6    7.4
I     2.1   -3.3   11.1
H    -6.1    6.8    7.4
I     7.9    4.3    7.6
I     0.7   -7.4   -9.2
I    -8.0    0.5    8.6
I    -2.5  -11.1    3.0
H     0.1   11.8    0.1
P   -10.1    2.7   -5.7
I    -9.1   -7.1    2.7
H    -1.5    9.7   -6.7
H    -0.9   11.8   -1.3
H    -2.0   -0.4  -11.7
H     4.3    6.7   -8.9
I     9.2   -7.1    2.7
H    -1.6   11.8    0.3
I     2.1  -11.0    4.3
H     3.8   -8.7   -7.3
H    -0.7    8.2    8.7
I     7.6    4.2   -8.4
H    -4.5   -8.6    7.1
I    10.8   -3.1    4.3
H   -10.3    0.7    6.3
N     7.7   -6.7   -6.4
P    -5.4   10.4   -3.0
P    -1.0   -5.1  -10.9
H     4.6   -8.6    7.1
H    -4.8    6.7   -8.9
I     1.6  -11.0   -4.7
H     7.4    9.5   -0.6
H    -5.1    6.8    8.7
C     8.5   -6.8   -5.2
H    -2.1   -7.0    9.7
H    11.9    0.8   -2.1
P    -9.9   -5.0    5.0
H    -8.8   -6.4   -5.4
I     1.4   -3.2  -11.7
I     4.4    0.3  -11.4
I     0.7    8.0   -9.2
I     1.9    4.4   11.2
I    -4.7    0.3  -11.4
H     0.7   -6.4   10.5
H   -10.9   -5.8   -0.6
I    -3.1  -11.4   -3.7
I    10.0    0.4   -7.3
H     7.7    0.7   -9.6
H     6.7    8.3   -6.2
I     3.2   12.0   -0.4
H     8.6    7.5   -4.9
P    -9.8    5.9    4.9
H    -0.5    0.0  -12.4
H     3.2    0.7   12.0
I    11.0   -3.4   -4.9
P    -0.9    5.8  -11.0
N     3.9   -9.0    7.7
H     2.7   -8.7   -8.6
I    10.7    4.4   -4.7
I    -6.0  -11.0   -0.2
H    -5.4   -8.7   -7.3
I     1.8    4.3  -11.7
I    -9.1    8.3    2.7
H    -6.5    6.7   -8.6
I    -2.7   11.9    3.2
I     9.2    8.3    2.7
H    12.0    0.6   -3.9
H     8.6   -7.9   -4.9
I     0.0    0.5   12.7
C    -0.3   -6.8   10.7
I    -2.7   11.8   -3.8
H     9.5   -6.4   -5.4
H    12.4   -0.8   -2.8
I   -12.7    0.5    0.5
I    12.3   -3.4   -0.4
H    -3.6    0.3   12.2
H   -10.2   -6.3   -4.4
N     3.6   -9.1   -8.2
I   -11.9   -3.4    3.2
C    12.5    0.3   -3.0
I   -11.7    4.3    3.0
I    11.2    4.4    4.3
H     8.5    9.6    0.7
I    -8.1   -7.3    6.8
H     4.1   -8.6    8.7
I    -2.4   -3.5   12.2
H    -6.2   -8.6    7.4
I   -11.8   -3.5   -3.8
H     8.1    9.1   -4.4
N     8.3    9.9   -0.3
N    -1.1    8.8    9.5
N    -5.3   -9.0    7.7
I    10.6   -7.2   -2.2
C    -9.8   -6.8   -5.2
H    -2.1    8.4    9.7
H     8.1   -7.2   -7.2
I    -3.3   -7.4  -10.3
I     1.8   12.0   -4.9
I    12.3    4.4   -0.2
N    -0.7  -13.1   -0.3
H    -0.8   -6.2   11.5
