         400
 sphere cut out from bulk 
H     0.3   -1.3   -0.1
H    -1.3   -1.3    0.3
N    -0.6   -1.7   -0.4
H    -0.8   -1.3   -1.3
I     2.4   -0.0    0.4
C    -0.7   -3.2   -0.3
I    -2.8   -0.2    1.8
H    -0.5   -3.5    0.7
I    -1.5   -0.0   -3.3
H     0.1   -3.6   -1.0
H    -1.7   -3.5   -0.7
H     3.6    0.6   -1.8
H     0.3    4.1    0.2
H     0.2    1.0    4.1
H    -1.5    4.0   -0.0
H    -0.4    4.1   -1.4
H     2.7   -1.0   -3.3
C    -0.6    4.4   -0.4
H    -2.0    0.1    4.3
N     4.0    0.6   -2.7
H     3.4    1.3   -3.3
I     1.2   -3.7    3.1
P     3.9   -2.2    2.3
H    -4.2    0.9   -2.7
P     4.0    2.3    2.3
C    -0.2    0.6    5.1
C     3.8   -0.7   -3.4
I     1.4    3.9    3.0
H     0.2   -0.4    5.2
N    -1.7    0.6    5.1
H     4.4   -1.4   -2.8
I     1.7    3.4   -3.8
I     1.1   -4.0   -3.7
H    -2.0    1.6    4.9
I     3.3    0.0    4.6
H     5.0    0.9   -2.7
H    -4.8   -1.4   -2.8
I    -4.4    3.8   -0.4
H    -5.6    0.6   -1.8
N    -5.2    0.6   -2.7
N    -0.6    5.9   -0.4
I     4.4   -4.0   -0.2
P    -0.5    2.1   -5.6
H     0.2    1.2    5.9
H     4.2   -0.7   -4.4
I     4.8    3.8   -0.4
P    -5.2    2.3    2.3
P    -0.9   -2.4   -5.6
P    -5.3   -2.2    2.3
I    -4.8   -4.0   -0.2
H    -2.0    0.3    6.0
H    -0.8    6.3    0.6
C    -5.4   -0.7   -3.4
H     0.3    6.4   -0.7
I     1.5   -0.3   -6.2
I    -3.1    3.7    4.2
H    -1.4    6.3   -1.0
I     6.4   -0.2    1.8
H    -5.0   -0.7   -4.4
I    -3.5   -4.0    4.2
H    -5.8    1.3   -3.3
I    -6.8   -0.0    0.4
I    -2.9    4.1   -4.9
I    -3.5   -3.9   -4.8
H    -6.4   -1.0   -3.3
P     3.8   -5.6   -2.9
P    -0.7   -5.4    5.0
P     4.1    5.4   -3.0
P    -0.6    5.5    4.9
I    -5.9    0.0    4.6
H     4.3   -6.2    1.3
H     3.7   -1.4    6.6
I    -2.5   -0.2   -7.4
H     3.6    6.9    1.4
I     2.3    7.5   -1.3
H    -4.9   -6.2    1.3
P    -5.1    5.4   -3.0
H     7.9   -1.3    0.3
I     5.7   -4.0    4.2
H     4.4   -6.1    3.0
H     2.5   -7.4    2.3
I    -1.4    7.6    2.6
I     6.0    3.7    4.2
I    -1.4   -7.8    2.6
H     7.5   -3.5   -0.7
P    -5.4   -5.6   -2.9
H     7.2    0.1    4.3
I     7.6   -0.0   -3.3
I     2.3   -7.9   -1.3
H    -4.8   -6.1    3.0
H    -3.8   -7.1    2.1
H     3.0   -1.6   -7.6
I     5.7   -3.9   -4.8
N     4.5   -6.8    2.2
I     0.1    3.8    7.5
H     2.8   -3.6    7.1
H     3.7    7.0    3.2
H    -0.3   -6.2   -5.8
H     8.3   -1.3   -1.3
N    -4.7   -6.8    2.2
I    -2.9    7.7   -2.4
I    -2.9   -7.7   -2.4
I    -0.2   -3.9    7.7
C     3.5    7.5    2.3
H     2.5    7.9    2.3
N     3.8   -1.8    7.6
H     7.7    4.0   -0.0
H    -1.6    6.5   -5.6
H     4.1    4.1    6.5
H    -5.5   -1.4    6.6
N     8.6   -1.7   -0.4
I    -2.5    0.0    8.4
H     3.1   -1.4    8.2
H     7.2    1.6    4.9
C     3.5   -7.9    2.3
H     0.2   -7.6   -4.7
I     6.3    4.1   -4.9
H    -5.6    6.9    1.4
H    -8.9   -1.3   -0.1
H     3.8   -3.9   -7.2
H     0.2   -9.0   -0.7
C     3.8   -3.3    7.6
I    -7.5    3.4   -3.8
I     0.1    3.6   -8.3
C     8.5   -3.2   -0.3
H    -4.6   -3.6    7.0
H     4.6   -3.6    7.0
N     7.5    0.6    5.1
I    -0.2   -4.1   -8.2
H     0.2    7.8   -4.7
H    -0.9   -9.1    0.6
H    -4.5   -1.4    7.9
I    -7.8    3.9    3.0
H     5.4   -7.1    2.1
H    -1.4   -9.1   -1.0
H    -2.2   -7.5   -4.9
H    -4.5   -1.6   -7.9
H     3.0    3.9   -7.9
C    -0.3   -7.3   -5.7
H    -5.1    4.1    6.5
N     3.8   -2.0   -8.3
H    -3.7    8.3    2.1
H     4.7   -1.4    7.9
H     7.1    0.3    6.0
H     4.7   -1.6   -7.9
I    -8.0   -3.7    3.1
H     3.6   -8.5    1.4
H     8.7   -3.5    0.7
H    -5.5    7.0    3.2
N    -5.4   -1.8    7.6
H     3.0    4.1    8.0
N    -0.7   -9.5   -0.4
H    -2.2    7.9   -4.9
N    -1.6    7.5   -5.7
I     1.7   -7.7    5.5
H     9.5   -1.3   -0.1
C     3.9    4.5    7.6
I     1.7    7.7    5.5
C    -5.7    7.5    2.3
H    -4.5    4.0   -7.6
C     8.6    4.4   -0.4
I    -8.1   -4.0   -3.7
I     1.6   -0.1    9.6
H     3.7   -8.4    3.2
C     3.7   -3.5   -8.3
H     8.8    4.1   -1.4
H    -5.4   -3.9   -7.2
I     3.4    7.5   -5.3
H     4.7    4.0   -7.6
H    -8.9    4.1    0.2
H    -9.1   -3.6   -1.0
C    -5.4   -3.3    7.6
C    -0.2    8.1   -5.7
N    -1.6   -7.9   -5.7
I    -7.7   -0.3   -6.2
H     3.2    6.4    6.9
H     2.8   -3.8   -8.7
H    -6.2   -1.6   -7.6
N    -9.8   -1.7   -0.4
H     0.1    1.0   -9.9
N     4.5    8.6    2.2
H    -9.0    1.0    4.1
I     6.7   -0.2   -7.4
H     9.3   -3.6   -1.0
C    -5.7   -7.9    2.3
H     3.6   -1.6   -9.2
H     0.4    7.6   -6.5
N    -4.7    8.6    2.2
H    -2.1    0.1   -9.9
N    -5.4   -2.0   -8.3
I     3.3   -7.9   -5.3
H     7.8    6.3   -1.0
C     3.9    4.3   -8.3
H     3.9   -3.6    8.6
H     0.3   -7.8   -6.5
H     5.5    8.3    2.1
H   -10.0   -1.3   -1.3
H    -4.4    4.2    8.2
I     6.3   -7.7   -2.4
H    -6.4   -3.6    7.1
I     6.3    7.7   -2.4
C    -5.3    4.5    7.6
I    -6.9    7.5   -1.3
H     4.4    9.2    1.3
H    -6.7   -7.4    2.3
H    -5.6   -8.5    1.4
H     9.4    1.0    4.1
H     9.5    4.1    0.2
H     3.7    6.2   -7.4
H    -6.1   -1.4    8.2
P     8.3   -2.4   -5.6
H    -2.0    7.7   -6.6
H    -9.7   -3.5    0.7
H     4.8    4.2    8.2
N     3.9    6.0    7.5
C     9.0    0.6    5.1
H    -2.1   -7.7   -6.6
C    -9.9   -3.2   -0.3
N     8.5    5.9   -0.4
I    -2.3    7.6    6.7
H    -9.0   -0.4    5.2
H     8.4    6.3    0.6
P    -0.5    2.3   10.2
H    -4.8    9.2    1.3
P    -0.8   -2.2   10.2
C    -5.5   -3.5   -8.3
P     8.6    2.1   -5.6
I    -2.4   -7.8    6.7
H    -9.6    4.1   -1.4
H   -10.5   -1.3    0.3
H    -4.4    6.4    7.2
H    -5.5   -8.4    3.2
I    -6.9   -7.9   -1.3
H    -6.7    7.9    2.3
H    -1.6   -8.9   -5.6
H     0.1   -0.7  -10.6
C    -9.4    0.6    5.1
H     4.5    9.2    3.0
H     9.3   -0.4    5.2
H     4.6   -3.9   -8.9
C    -5.3    4.3   -8.3
C    -9.8    4.4   -0.4
H    -4.6   -3.9   -8.9
H    -5.3   -3.6    8.6
H     4.8    6.4    7.2
C    -0.2    0.4  -10.7
I     6.7    0.0    8.4
H    -6.2    3.9   -7.9
H    -4.7    9.2    3.0
N     3.9    5.8   -8.3
H    -0.3    9.2   -5.8
H     4.0    3.9   -9.3
H    -9.0    1.2    5.9
H    -5.6   -1.6   -9.2
I    -5.8    7.5   -5.3
N    -1.7    0.4  -10.8
H    -6.2    4.1    8.0
P     3.8    9.8   -2.9
N    -5.3    6.0    7.5
H    -8.9    6.4   -0.7
C    -0.6  -11.0   -0.4
P    -0.6   -9.9    4.9
H    -5.5    6.2   -7.4
H     9.4    1.2    5.9
H    -6.0    6.4    6.9
H    -2.1    1.4  -10.9
P    -0.7   10.0    5.0
I    -5.9   -7.9   -5.3
P     4.0  -10.0   -3.0
P     8.5   -5.4    5.0
I     7.8    7.6    2.6
I   -10.7   -0.0   -3.3
H     3.7    6.4    8.5
H     3.1    6.1   -8.9
I     7.8   -7.8    2.6
H     0.2  -11.3    0.2
H    -5.2    3.9   -9.3
P     8.6    5.5    4.9
H    -0.5  -11.3   -1.4
H     7.0   -7.5   -4.9
H     9.4    6.4   -0.7
H     7.6    6.5   -5.6
H   -10.7    4.0   -0.0
N    -5.3    5.8   -8.3
P    -9.7    2.1   -5.6
H   -10.9   -3.5   -0.7
I    10.4   -3.7    3.1
H    -6.4   -3.8   -8.7
H    -1.5  -11.4   -0.0
N    -9.8    5.9   -0.4
H    -4.4    6.2   -8.6
P    -5.4    9.8   -2.9
I    11.6   -0.0    0.4
H     4.8    6.2   -8.6
P    -5.1  -10.0   -3.0
H     7.0    7.9   -4.9
I    10.3   -4.0   -3.7
H    -0.3   -6.0   10.0
I     3.3   -0.2  -11.2
H     0.2    0.8  -11.7
I    10.6    3.9    3.0
H    -2.1   -0.1  -11.6
P   -10.1   -2.4   -5.6
H     3.1   -9.0    6.9
H   -10.0    6.3    0.6
H     0.1   11.8   -1.0
H    -0.5   11.9    0.7
I     1.4  -11.5    3.0
H    -5.5    6.4    8.5
I    -2.4    7.4   -9.1
H     7.8   -9.1   -1.0
N   -10.9    0.6    5.1
H   -11.2    0.1    4.3
H     0.4   -7.5    9.3
H    -2.0   -7.5    9.2
H    -1.6   11.9   -0.7
I     1.2   11.4   -3.7
I    10.9    3.4   -3.8
I    -7.5   -7.7    5.5
I    -7.5    7.7    5.5
N     7.6    7.5   -5.7
I    -2.9    4.3   11.0
I    -3.5   -3.7   11.0
I     1.2   11.7    3.1
P    -0.6    5.3  -10.9
H     7.1    0.1   -9.9
I   -12.0   -0.2    1.8
H     0.4    7.8    9.3
I     4.4   11.4   -0.2
H     4.2   -0.5   11.5
C    -0.7   12.2   -0.3
I     6.9    7.6    6.7
P    -9.8    5.5    4.9
P    -0.7   -5.6  -10.9
I    -7.6   -0.1    9.6
H    -2.0    7.9    9.2
H     8.9   -6.2   -5.8
I     6.8   -7.8    6.7
I    -4.8   11.4   -0.2
P    -9.9   -5.4    5.0
H    -4.4   -9.0    7.2
N     7.6   -7.9   -5.7
H     3.7   -9.2   -7.4
H    -1.6    6.7   10.3
H     8.3   -9.1    0.6
H   -11.2    1.6    4.9
H   -10.6    6.3   -1.0
I    -2.4   -8.0   -9.1
C    -0.2   -7.1   10.2
I    -9.1    3.8    7.5
I    10.7   -0.3   -6.2
H     7.1   -7.7   -6.6
H     7.1    7.7   -6.6
H    -6.1    6.1   -8.9
H    11.9   -1.0   -3.3
I     9.0   -3.9    7.7
I    -4.4  -11.6   -0.4
H     4.8   -9.0    7.2
H    -5.0   -0.5   11.5
I     9.3    3.8    7.5
I    -3.2    3.5  -11.6
I     4.7  -11.6   -0.4
I    -1.5    0.2   12.5
I    -3.4   11.4    4.2
N     3.9   -9.4    7.5
I     1.7  -11.9   -3.8
H    -9.0   -7.6   -4.7
I    -2.9  -11.3   -4.9
I    -5.9   -0.2  -11.2
I     1.8    3.7   12.0
I    -9.4   -3.9    7.7
H   -11.2    0.3    6.0
N     8.5   -9.5   -0.4
I     1.2   -3.8   12.1
H    -9.0   -9.0   -0.7
I    -3.2  -11.7    4.2
H    -9.5   -6.2   -5.8
H    -9.0    7.8   -4.7
I     9.0   -4.1   -8.2
N    -1.6   -7.7   10.1
H     2.8   -0.8   12.5
N    -1.6    7.7   10.1
H     3.7   -9.0    8.5
C     8.9   -7.3   -5.7
H    -6.1   -9.0    6.9
I    -9.1    3.6   -8.3
I    -3.5   -4.2  -11.7
I     1.7    7.5  -10.3
H    12.8    0.6   -1.8
I     5.7   -3.7   11.0
H     9.4   -7.6   -4.7
H     7.6   -8.9   -5.6
I    -3.5   11.5   -4.8
I     9.3    3.6   -8.3
H    -5.5   -9.2   -7.4
H     9.4   -9.0   -0.7
C     3.8   -0.5   12.5
H    12.6    1.3   -3.3
H     7.1    1.4  -10.9
I     1.6   -7.9  -10.3
