         400
 sphere cut out from bulk 
H     0.2   -1.5    1.3
I    -2.0    0.5    1.6
H     1.8   -0.9    1.6
C     1.2   -1.8    1.6
I     1.3    2.0   -1.3
H     1.8   -2.3   -0.4
H    -1.3    1.1   -2.5
N     1.8   -2.7    0.6
P    -0.3    3.2    1.2
H     1.2   -2.3    2.6
H     1.2   -3.6    0.5
H    -2.5   -1.0   -2.7
C    -1.8    0.9   -3.4
I    -2.3   -3.1   -1.3
H     2.7   -3.0    0.8
I     1.8   -2.2   -3.0
N    -2.9   -0.1   -3.1
H    -3.6    0.2   -2.4
I     1.9    2.1    3.3
H    -1.2    0.4   -4.2
P    -4.0   -2.1    1.3
P     3.3    0.6   -3.3
H    -2.3    1.8   -3.8
H    -2.3    0.9    4.2
I    -2.7    4.4   -0.7
H    -3.5   -0.3   -3.9
I     5.3   -0.2   -0.8
I    -2.2   -3.8    3.3
H     5.2    2.1    0.1
H    -4.6    2.4    2.2
H     4.4    3.6    0.3
P    -0.4   -4.6   -3.3
H     4.6    2.4    2.4
I    -5.7   -0.2   -0.8
H     1.3    5.3   -2.0
N    -2.8    0.8    5.1
H     2.2    4.5   -3.3
I     1.3   -1.9    5.5
H    -1.5   -0.7    5.8
H    -3.6    0.1    4.9
H    -4.9    3.5    0.1
I    -2.0    4.4    3.8
N     5.3    3.1    0.5
I     1.5    1.4   -5.8
I     1.0   -6.1   -0.7
I     1.2    6.0    0.9
H    -5.8    2.1    0.1
C    -1.9    0.2    6.1
H    -1.0    1.0    6.3
C     1.8    5.4   -2.9
H    -3.2    1.7    5.4
C     5.5    3.0    2.0
N    -5.8    3.1    0.5
H     4.2   -3.5   -3.7
C    -5.6    3.0    2.0
P     3.3    0.6    5.7
I     5.4   -0.8    3.8
I     4.9   -4.4    0.9
H     0.1    5.3   -4.2
I    -1.8   -3.1   -5.7
I    -5.6   -0.8    3.8
H    -4.7   -4.3   -2.8
I     5.0    3.3   -3.5
H     1.9   -1.3   -6.6
H    -1.3   -6.9    0.1
H     6.1    3.5    0.1
H     0.2    4.9    5.1
I    -2.0    4.4   -5.3
H    -1.8   -6.5    2.4
H     6.4    2.4    2.2
H    -5.5    4.0    2.4
N     0.9    6.0   -4.0
H     0.9   -2.8   -6.6
H     5.6    4.0    2.4
H     2.6    6.2   -2.8
H    -2.5    6.8    0.5
H    -6.4    2.4    2.4
I     1.7   -6.1    3.8
P    -0.4   -4.6    5.7
H     4.9   -5.1   -2.0
H    -2.9   -6.8    0.3
P     7.0   -2.1    1.3
H    -2.4    0.1    7.1
H    -0.9    7.4    0.8
N     4.6   -4.4   -4.0
H    -6.6    3.6    0.3
H     3.8   -5.1   -4.2
C     1.8   -2.3   -7.0
I     5.4   -0.9   -5.3
I    -6.1   -4.4    0.9
N    -2.1   -7.3    0.5
H     1.1    4.2    6.3
I    -6.0    3.3   -3.5
I    -5.6   -0.9   -5.3
P    -4.0    5.8   -3.3
H     0.5    6.9   -3.7
H     7.5    0.2   -2.4
H     2.5    5.7    4.8
N     0.8    5.1    5.9
H     2.7   -2.8   -6.9
H     1.4    6.1   -4.9
N    -1.9    7.7    0.6
C    -1.9   -7.5    2.0
C     5.5   -5.0   -2.9
C    -5.5   -5.0   -2.9
H     5.0   -3.4    5.2
P     3.4   -7.3    1.2
H     6.3   -4.3   -2.8
I     1.4    2.1    7.8
H    -6.1   -5.1   -2.0
I     1.7   -6.1   -5.3
I    -2.4   -7.1   -3.5
H     5.1   -4.3   -4.9
H    -1.9    8.1   -0.4
H    -4.9   -4.8    4.8
H    -1.0   -8.0    2.2
P    -0.3    3.1   -7.8
P    -7.7    0.6   -3.3
H     3.8   -5.5    5.1
C     1.8    6.1    5.6
H    -5.1   -5.9   -3.3
H     7.5   -0.3   -3.9
I    -2.5    0.8   -8.1
H    -6.9   -3.5   -3.7
H    -2.2   -8.3    0.1
H     0.1    5.5    6.7
H     4.9    2.9   -6.5
H    -6.0   -3.4    5.2
N     8.1   -0.1   -3.1
I     5.5    3.0    6.1
I    -5.5    3.0    6.1
I    -2.4   -3.2    7.8
N    -6.4   -4.4   -4.0
H    -2.7   -8.0    2.4
H    -5.9   -4.3   -4.9
H    -8.3   -3.0    0.8
H     1.4    7.0    5.2
H    -2.5    8.1    2.6
H     0.7   -1.6   -8.7
I    -1.8    8.2   -3.0
N     1.6   -2.1   -8.5
H     7.5    0.1    4.9
C    -5.5   -4.3    5.6
C     5.5   -4.3    5.6
H     5.9   -5.9   -3.3
I     5.0    7.3   -1.3
H     8.5   -1.0   -2.7
P    -4.0   -2.1   -7.8
I     5.1    6.7    3.3
P     3.4    8.4    1.3
N     4.4   -5.3    5.9
C    -2.5    8.6    1.6
H     3.8   -5.0    6.7
P    -4.1    5.9    5.7
H    -4.9   -4.1    6.5
H     6.1   -4.8    4.8
I     9.0    0.5    1.6
I     8.7   -3.1   -1.3
H    -9.2   -0.9    1.6
H     2.4    6.3    6.5
H    -6.1    2.9   -6.5
H     3.9    3.7   -7.8
H     2.4   -1.7   -8.9
I     8.4    4.4   -0.7
I    -5.9    6.7    3.3
I     1.7    5.7   -7.5
H    -9.2   -2.3   -0.4
I    -6.0    7.3   -1.3
H     1.4   -8.6   -3.8
H     0.7   -1.6    9.4
C     4.9    3.4   -7.5
H     1.5   -3.1   -8.9
I     4.7   -0.8    8.3
H     2.4   -1.7    9.2
P    -7.7    0.6    5.7
H     7.8    1.7    5.4
H    -3.5    8.9    1.3
P     7.0    5.8   -3.3
N    -9.3   -2.7    0.6
H     8.7    1.8   -3.8
H    -4.6    2.2   -8.3
N     8.2    0.8    5.1
H     8.7    0.9    4.2
I    -1.8   -7.4    6.1
H    -7.2   -5.1   -4.2
H     1.5   -3.1    9.2
H    -1.8   -6.1   -7.4
H     6.1   -4.1    6.5
H    -1.8    9.5    1.6
C     9.2    0.9   -3.4
I     5.0   -8.4   -1.3
I    -2.1    5.0    8.2
I    -9.2   -2.2   -3.0
I    -9.1    2.1    3.3
N     1.6   -2.1    9.6
I     1.6   -5.4    8.2
H     2.4   -9.3   -2.5
H     4.9    1.6   -8.6
I    -9.7    2.0   -1.3
H     4.8   -6.2    6.3
C    -9.8   -1.8    1.6
I     8.8   -3.8    3.3
H     9.8    1.1   -2.5
H    -5.5    4.3   -7.4
H     5.5    4.3   -7.4
I     1.7   -9.9    1.6
H    -2.5   -7.5   -6.5
C    -6.1    3.4   -7.5
H     0.5   -8.7    5.4
H    -1.0    7.6   -6.9
I    -2.5    0.8   10.0
C     1.8   -9.5   -3.4
N    -6.6   -5.3    5.9
I     5.4   -4.7   -7.5
N     5.4    2.5   -8.5
I     1.6   10.2   -0.8
H    -9.8   -2.3    2.6
H    -8.8    4.5   -3.3
H    -7.2   -5.5    5.1
I     1.7    9.6    3.8
I    -6.0   -8.4   -1.3
N    -5.6    2.5   -8.5
H     0.1  -10.2   -2.4
H    -9.8   -3.6    0.5
H    -2.7    7.6   -6.6
I    -2.4    8.6    5.5
I    -5.5   -8.3    3.3
H     1.4   -9.5    4.2
I    -5.7   -4.7   -7.5
I    -6.3   -0.8    8.3
C    -2.5   -7.0   -7.5
I     5.6   -8.3    3.3
H     8.1   -6.8    0.3
P    -7.6   -7.3    1.2
I     1.4    2.1  -10.3
H    -6.1    1.6   -8.6
H     5.5    2.9    8.7
H     6.4    2.2   -8.3
H    -5.6    2.9    8.7
H     9.8    0.4   -4.2
I     9.1    4.4    3.8
P     7.1   -2.1   -7.8
P     7.0    5.9    5.7
H    -8.4    6.2   -2.8
I    -5.4    7.3   -5.7
P    -0.3    3.2   10.3
H    -6.2   -6.2    6.3
I    -2.1  -10.6   -0.8
I     5.6    7.3   -5.7
H     4.9    1.6    9.5
H    -3.5   -6.7   -7.8
I     4.7   -0.9   -9.8
C    -1.9    8.2   -7.0
H     4.8    9.4   -2.7
N     0.9   -9.6    5.1
H     8.6    6.8    0.5
N     0.8  -10.5   -3.1
H    -7.2   -5.0    6.7
H   -10.8   -1.5    1.3
C     9.2    0.2    6.1
I    -2.4   -3.2  -10.3
I     1.7    9.6   -5.3
C    -9.2    5.4   -2.9
H    -4.6    2.2    9.8
P    -4.1   -9.8   -3.3
H     2.5  -10.0   -4.2
H     8.6    0.1    7.1
H    -8.3   -2.8   -6.9
H    -7.1    3.7   -7.8
P     3.4   -7.3   -7.8
H     9.5   -0.7    5.8
P    -4.0   -2.0   10.3
P    10.7    3.2    1.2
I    -9.5    1.4   -5.8
I    -2.0    5.0   -9.9
H     5.5    2.9   -9.4
H    -9.8    5.3   -2.0
H    -2.4    0.1  -11.0
I     9.2   -3.1   -5.7
H    -5.5    2.9   -9.4
H    -8.5    5.7    4.8
N     5.4    2.5    9.6
H    -9.1   -1.3   -6.6
I    -9.7   -1.9    5.5
I     9.1    4.4   -5.3
I     1.6   -5.4   -9.9
H    11.2   -1.5    1.3
H     0.1  -10.3    4.9
N    -5.6    2.5    9.6
P    -7.7    8.4    1.3
H    -1.8    9.2   -6.6
C     1.8   -2.2   11.1
H     0.2  -10.8   -3.9
H    -6.1    1.6    9.5
H     3.9   10.1   -3.9
H     9.2   -6.5    2.4
I    -9.8    6.0    0.9
P    -0.4   11.1   -3.3
N     8.9   -7.3    0.5
H     3.8   10.7   -2.4
H    -6.2    9.4   -2.7
H    -1.9   -7.5    8.7
H     3.9    3.7   10.3
H     2.6   -9.5    6.3
N     4.4   10.3   -3.1
I    -6.3   -0.9   -9.8
H    -0.9   -8.2   -8.3
I     8.6   -7.1   -3.5
H     1.9   -1.2   11.5
I   -10.0   -6.1   -0.7
I    -9.3   -6.1    3.8
H     7.5    8.9    1.3
I     5.0    7.2    7.8
H     8.3   -8.0    2.4
H    -2.2    7.3   -8.9
N    -1.9   -7.9   -8.5
H     1.2  -11.4   -2.7
P   -11.3    3.2    1.2
C    -9.2   -2.3   -7.0
H    10.0    1.0    6.3
I     8.6    0.8   -8.1
I     5.1   -9.0   -5.8
H     0.9   -2.8   11.5
H     2.7   -2.8   11.2
H    -1.0    0.9  -11.8
H     9.8   -6.9    0.1
N     9.1    7.7    0.6
P     3.4    8.4   -7.8
H     6.4    2.2    9.8
H    -2.2    7.4    9.2
C     9.1   -7.5    2.0
C     1.8  -10.2    6.1
I    -2.0  -11.3    3.8
N    -2.1    8.3   -8.5
I     8.6   -3.2    7.8
H     8.6    8.1    2.6
P    10.6   -4.6   -3.3
P    -4.1   -9.8    5.7
C    -1.8    0.2  -12.0
H     8.8   -8.3    0.1
I     1.7    5.7   10.6
I    -5.9   -9.0   -5.8
C     4.9    3.4   10.6
H    -1.9   -7.5   -9.4
H     9.1    8.1   -0.4
H     3.8   10.5    4.9
I    -6.0    7.2    7.8
I     5.4   10.9    1.6
C     8.6    8.6    1.6
I    -9.3   -6.1   -5.3
C    -9.2    6.1    5.6
H   -10.1   -2.8   -6.6
I    -5.7   10.9    1.6
H    -9.6    6.1   -4.9
P    -0.4   11.0    5.7
N   -10.1    6.0   -4.0
H    -5.1    9.7    5.8
H    -1.5   -0.7  -12.3
H    -1.8   -6.1   10.7
I     5.0   -8.3    7.8
H    -9.9    4.2    6.3
C    12.2   -1.8    1.6
P     7.0   -9.8   -3.3
I     1.5    1.5   12.3
H    -8.6    6.3    6.5
H    -8.6   -1.7   -8.9
H    -2.5   -8.8   -8.6
H    10.1    7.4    0.8
H     1.2  -10.3    7.1
P    -0.3  -12.5    1.3
I    12.3    2.0   -1.3
H    -1.2    8.7   -8.9
I    -9.7    2.1    7.8
H     1.2    4.2  -11.8
H   -12.3    1.1   -2.5
I    -2.0  -11.3   -5.3
N    -1.9   -7.9    9.6
H    -4.9   10.9   -4.2
N    -6.6   10.3   -3.1
H     3.9  -11.9    1.3
P     7.0   -2.0   10.3
H     1.5   12.6    0.1
I     1.2   -9.6   -8.1
I     9.2    8.2   -3.0
H     0.1    5.4  -11.4
H     5.5  -11.3    1.6
H    -8.6   -1.7    9.2
H    -5.5  -11.3    1.6
H    12.2   -2.3    2.6
I    -2.4   12.4   -1.3
H     5.9    9.7    5.8
I     1.0    9.6    8.3
H    -1.3    8.8    9.2
H     2.2  -11.1    5.8
H     7.5   -6.7   -7.8
P   -11.4   -4.6   -3.3
H    -2.9    8.8   -8.7
C    -6.1    3.4   10.6
H     5.5    4.3   10.7
H    12.2   -3.6    0.5
