         400
 sphere cut out from bulk 
H     0.5    0.5   -0.7
C     0.5   -0.6   -0.7
H    -0.5   -1.0   -0.7
H     1.1   -1.0    0.1
N     1.1   -1.0   -2.0
H     0.6   -0.7   -2.8
H     2.1   -0.7   -2.1
I     0.6    2.9    1.1
H     1.2   -2.1   -2.1
I    -2.7   -1.8    1.1
H    -2.5    0.9    2.5
I    -2.9    1.9   -1.7
I     1.2   -1.0    3.5
H    -2.3    2.7    2.2
C    -2.9    1.9    2.8
P     2.6    1.9    3.3
P    -1.1    4.5   -1.0
P    -1.0   -3.3    3.3
P    -4.7   -0.7   -1.1
I     4.7    0.8    1.1
I     1.0    3.5   -3.4
H    -3.9    1.9    2.5
I     0.6   -4.9    1.1
I    -3.1   -2.4   -3.4
H    -2.5    2.0   -4.2
H    -1.7    2.2    4.5
H     4.0   -1.8    3.2
I     4.2    0.2   -3.4
N    -2.7    2.2    4.2
I     0.4   -0.4   -5.5
I     1.1   -4.3   -3.4
I     4.5   -3.3   -0.8
H    -1.5    1.2   -5.3
H     4.7    3.1   -0.8
H     3.1    4.3   -2.2
H     3.7   -3.5    2.8
H    -1.3    2.8   -4.9
N    -2.0    2.1   -5.1
H    -3.2    1.5    4.8
C     4.5   -2.7    2.9
H     5.1   -2.6    2.0
H    -1.5   -5.8   -0.8
H    -3.2   -4.7   -2.2
H     4.1    4.6    0.0
H    -3.1    3.1    4.5
H     1.0   -0.9    6.2
C     4.7    4.2   -0.8
I     0.5    2.8    5.7
I    -3.2    5.5    1.1
I    -2.7   -1.7    5.6
P     6.3   -0.7   -1.1
I    -6.4    0.8    1.1
N     4.1    4.7   -2.1
P     2.7   -5.9   -1.0
H    -3.1   -5.8    0.0
P     2.7    1.9   -5.8
H     4.4   -2.1   -4.6
P    -1.0   -3.3   -5.8
C    -2.6   -6.2   -0.8
H    -6.0   -2.6    2.0
N    -3.2   -5.7   -2.1
H    -5.0   -2.3    4.2
H     4.6    4.3   -2.9
H     0.4    0.5    6.9
H    -0.5   -0.9    6.9
H    -5.3    4.6   -0.8
N     0.4   -0.5    7.0
H     4.2   -3.8   -4.3
H    -6.3    3.1   -0.8
I     0.7    7.1   -0.8
I     4.0    4.8    3.6
H    -2.7   -6.1   -2.9
C    -2.9    2.5   -6.2
H     4.1    5.7   -2.2
N     5.4   -3.1    4.0
H     5.7    4.6   -0.8
I    -6.6   -3.3   -0.8
I    -3.3   -5.6    3.6
I     4.7    0.9    5.7
H    -0.0    6.9    2.8
N     4.7   -3.0   -4.9
I    -2.7    6.1   -3.4
H    -3.7    1.7   -6.3
H    -5.1   -3.9    3.8
I     0.5   -4.9    5.7
N    -5.7   -3.1    4.0
H     4.9   -3.2    4.9
C    -6.3    4.2   -0.8
I    -6.9    0.2   -3.4
H    -3.4    3.4   -5.9
H    -5.3   -3.0   -4.6
H    -4.2   -6.1   -2.2
C    -6.6   -2.7    2.9
H     6.1   -2.3    4.2
H    -2.6   -7.3   -0.8
H     2.1    6.4    3.8
H     7.1    1.9    2.5
H    -2.3    2.6   -7.1
H     0.4    6.6   -4.3
H     5.7   -3.0   -4.6
H    -7.1   -1.8    3.2
H     5.9   -3.9    3.8
H     3.5   -3.3   -6.6
H     1.5   -7.7    2.2
H     1.3    7.8    2.0
C     0.7    7.7    2.9
H    -6.4    4.3   -2.9
H    -6.9    4.6    0.0
H    -6.7   -2.1   -4.6
C     1.1   -1.0    8.3
C     4.6   -3.3   -6.3
I     4.8    4.2   -5.6
N     1.6    7.3    4.0
H    -6.2   -3.2    4.9
I    -3.2    5.4    5.7
I     8.2    1.9   -1.7
N    -6.3   -3.0   -4.9
H     0.7   -7.3    4.5
H    -7.3   -3.5    2.8
I    -6.4    0.9    5.7
I     8.3   -1.8    1.1
H     2.1   -0.6    8.3
N    -6.9    4.7   -2.1
H     1.0   -2.1    8.3
I     1.0    3.4   -7.9
I    -2.4   -6.2   -5.6
I     0.9   -8.5   -1.7
I     4.4   -7.5    1.1
H     1.1    7.2    4.9
H    -0.2   -8.4    2.5
H     4.2    4.5    6.3
C     8.2    1.9    2.8
I    -3.0   -2.3   -8.0
N     0.9    7.3   -4.9
H     1.9    7.3   -4.6
H    -6.8   -3.8   -4.3
H     5.1   -2.5   -6.9
I     7.9   -2.4   -3.4
C     0.9   -8.5    2.8
H    -2.6    8.3   -2.1
H     8.6    0.9    2.5
I     4.7   -6.9   -3.4
I    -3.0    1.9    8.3
H     1.2    6.1   -6.5
I     4.3    0.3   -8.0
H     4.8    3.1    7.0
H     0.5   -0.6   -9.1
H    -3.0   -5.8    6.3
I     1.1   -4.4   -8.0
P    -4.8    7.1    3.3
H     0.5   -0.6    9.1
H     0.3   -7.0   -5.9
H     0.2    8.6    3.2
H    -8.9   -0.7   -2.1
H    -6.9    5.7   -2.2
P    -1.1    4.5    8.0
I    -7.1    4.8    3.6
H    -1.5   -5.8    7.0
P    -8.4    1.9    3.3
H     5.0   -4.3   -6.5
H     7.8    1.5    4.8
H    -7.9    4.3   -2.2
I     4.5   -3.3    7.4
N     1.0   -8.2    4.2
H     2.5   -7.5   -4.9
I    -6.2    4.2   -5.6
H     2.3    8.1    4.2
P    -4.8   -0.7    8.1
H     8.7    2.7    2.2
H     7.9   -4.7   -2.2
H     6.9   -6.1   -2.2
H    -5.9   -2.5   -6.9
H     1.2   -8.4   -4.2
H     0.6    8.3   -4.6
N     4.8    4.2    7.1
C     0.8    7.1   -6.3
N     8.3    2.2    4.2
H     2.1   -8.2    4.5
I     4.2    8.0   -3.4
I     7.9    5.5    1.1
C    -6.5   -3.3   -6.3
H     8.0    3.1    4.5
H     8.5    2.0   -4.2
H    -0.3    7.1   -6.6
H    -2.6    9.4    0.1
N    -2.5   -6.2    7.1
H     7.9   -5.8    0.0
I     4.6    8.6    1.1
N     1.8   -8.3   -5.1
H     7.4    1.7   -6.3
H    -5.3    4.5    7.0
H     1.3   -9.5    2.5
H    -6.3    3.1    7.0
H    -6.1   -4.3   -6.5
N    -2.6    9.4   -2.0
H     3.1    4.2    8.4
I    -6.3   -6.9   -3.4
N     7.9   -5.7   -2.1
I    -2.6   -9.5    1.1
H    -9.9   -1.0    0.1
C     1.1   -1.0   -9.9
P     6.3    7.1    3.3
H    -1.7    9.7   -2.1
C     0.8   -7.9   -6.2
P     2.6    9.7   -1.1
H     2.1   -0.6   -9.9
H     5.7    4.5    7.0
I    -6.7   -7.5    1.1
H     0.5   -8.9    4.8
H     1.1   -2.1   -9.9
N    -9.9   -1.0   -2.0
H    -3.1   -4.7    8.4
I     8.3   -1.7    5.6
I     7.8   -5.6    3.6
P     6.3   -0.7    8.1
P    -4.7   -8.5    3.3
H     7.6    3.4   -5.9
I     0.7    7.1    7.4
P     2.7   -5.9    8.0
P    -4.8    7.1   -5.8
P    -8.4   -5.9   -1.0
H    -9.9   -2.1   -2.1
H    -6.8    4.5    6.3
C    -3.2    9.8   -0.7
H    -4.3    9.4   -0.7
P    -8.4    1.9   -5.8
I    -2.7    6.0   -8.0
I    -2.6    9.4    3.5
H    -2.5   -7.2    7.0
N    -6.3    4.2    7.1
I     4.3   -7.6    5.7
C     4.1    4.6    8.4
I    -6.5   -3.3    7.4
I    -6.8    0.3   -8.0
I    -2.9    1.9   -9.9
C     8.1    2.5   -6.2
I    -9.9   -1.0    3.5
H     1.3    7.8   -6.9
C     8.5   -6.2   -0.8
H    -7.5   -3.3   -6.6
H   -10.5    0.5   -0.7
C   -10.5   -0.6   -0.7
N     9.0    2.1   -5.1
H     9.3    2.2    4.5
H    -3.1    9.7   -2.8
H    10.6   -1.0   -0.7
H     1.4   -7.8   -7.1
C    -3.1   -5.8    8.4
H     8.4   -6.1   -2.9
H     0.1   -8.7   -6.3
H     2.3   -9.1   -5.3
H     4.3   -9.9   -0.7
H   -10.4   -0.7   -2.8
I     0.9    3.4   10.2
I    -6.5    8.6    1.1
I     8.3    6.1   -3.4
I   -10.5    2.9    1.1
I    -3.1   -2.3   10.2
P     9.9    4.5   -1.0
H     4.1    5.7    8.4
H     4.8    4.2   -9.0
H     9.6    1.2   -5.3
I     4.2    0.3   10.2
I    -6.9    8.0   -3.4
P     6.3    7.1   -5.8
H     3.2    4.2   -9.7
I     7.8    5.4    5.7
P    10.1   -3.3    3.3
I    -3.1  -10.1   -3.4
P     6.4   -8.5    3.3
I     1.0   -4.3   10.2
I     0.4   10.6   -3.4
H     4.7    4.2    9.2
H     9.5   -5.8   -0.8
P    -0.9  -11.1   -1.1
P    -1.0    4.5  -10.2
P    -4.7   -0.7  -10.1
N     0.5   -0.6  -11.2
H     8.5   -7.3   -0.8
H    -2.5   -6.2   -9.0
I   -10.1    3.5   -3.4
H    -4.1   -6.2    8.4
H    -3.1   -4.7   -9.7
H     9.7    2.8   -4.9
P    -4.6   -8.5   -5.8
H     0.5    0.5  -11.3
H    -0.5   -0.9  -11.3
I     0.9   11.2    1.1
I     4.6    8.7    5.6
H    -3.2   10.9   -0.7
I    -2.6   -9.5    5.7
H    -2.5   -6.2    9.2
I   -10.0   -4.3   -3.4
H     8.7    2.6   -7.1
I     8.0   -2.3   -8.0
I     4.7   -7.0   -7.9
C     4.2    4.6   -9.8
H    11.6    0.5   -0.7
H   -11.5   -1.0   -0.7
H     6.8    9.4   -0.7
I   -10.5   -4.9    1.1
C    11.6   -0.6   -0.7
H    -2.4    2.6   11.1
H    -8.9    6.4    3.8
I    -6.8   -7.6    5.7
H    -2.8    9.5    6.2
H    -6.3    4.2   -9.0
H     8.0   -5.8    6.3
I     8.1    1.9    8.3
C    -3.1   -5.8   -9.8
C    -6.9    4.6    8.4
C     4.3  -11.0   -0.7
H     3.3  -11.4   -0.7
H   -10.1   -0.9    6.2
I    -3.4   10.0   -5.5
I     0.8   -8.5    8.3
H    -6.3    4.2    9.2
P     6.3   -0.7  -10.1
I     8.6   -6.2   -5.6
H    -6.8   -9.9   -0.7
H    11.7   -0.7   -2.8
H     4.2    5.7   -9.7
I   -10.7   -0.4   -5.5
I    11.6    2.9    1.1
H     8.4    8.3   -2.1
P    10.0   -3.3   -5.8
H    -2.7    8.3    8.3
H     1.0   -0.9  -12.0
P     2.7   -5.9  -10.2
I     4.3    8.0   -8.0
P     6.4   -8.5   -5.8
I     4.5   -3.3  -10.8
I    -2.8    6.1   10.2
H     4.4  -11.0   -2.8
H    12.2   -1.0    0.1
I    -6.5    8.7    5.6
H    -9.0   -0.6    8.3
I     1.1  -12.2    1.1
H    -4.1   -6.2   -9.7
I   -10.5    2.8    5.7
I    -6.8    0.3   10.2
H    -6.9    5.7    8.4
H    -7.9    4.2    8.4
I    -6.3   -7.0   -7.9
H    -5.2  -11.1   -2.1
N    12.2   -1.0   -2.0
H     4.9  -11.4    0.1
H    -8.6   -7.5   -4.9
H     7.9   -4.7    8.4
H    -9.6   -7.7    2.2
H     6.9   -6.2    8.4
H     3.5   -3.2   11.6
C     7.8    9.8   -0.7
H    -4.3    9.5    6.9
H    -3.7    1.7   11.9
H     4.8   11.3    2.5
N    -3.3    9.9    7.0
I   -10.3    7.1   -0.8
H    -9.1    7.3   -4.6
H    12.2   -2.1   -2.1
N     4.9  -11.4   -2.0
H     8.4    9.4    0.1
H     4.8    3.1  -11.2
H    10.5   -0.9    6.9
H    -8.7    8.1    4.2
C    -3.0    2.5   12.0
N    -9.4    7.3    4.0
H     5.1   -2.5   11.3
H    -9.8    7.8    2.0
I     0.9   11.3    5.7
I     0.3   -0.4   12.7
H   -10.6    0.5    6.9
I    11.6   -4.9    1.1
I    11.4   -0.4   -5.5
H     5.9  -11.1   -2.1
N     8.5   -6.2    7.1
H    -1.5   -5.9  -11.2
N   -10.6   -0.5    7.0
N     8.4    9.4   -2.0
I    12.2   -1.0    3.5
P    -1.2   12.3    3.3
H     4.2   -9.9    6.9
N     4.8    4.2  -11.1
I     8.4   -9.5    1.1
C    -6.9    4.6   -9.8
I     0.6    2.8  -12.5
I     4.1  -10.8   -5.5
P     2.6    1.9   12.4
C    -2.7    9.4    8.3
H     7.9    9.7   -2.8
P     2.5    9.7    8.1
I     0.8    7.0  -10.8
I     4.9  -11.4    3.5
P    -1.0   -3.3   12.4
C     7.9   -5.8    8.4
P   -12.0   -3.3    3.3
P    -8.5    9.7   -1.1
C    -6.7  -11.0   -0.7
I    -2.7   -1.7  -12.5
I     8.1    1.9   -9.9
