         400
 sphere cut out from bulk 
H    -0.8    0.9   -1.0
H    -1.3   -0.8    0.6
C    -1.5    0.2   -1.2
N    -2.1   -0.4    0.1
H    -1.1   -0.7   -1.8
H    -2.5    0.4    0.6
I     2.5    0.5   -0.8
H    -2.8   -1.1   -0.1
H    -2.3    0.6   -1.8
I     0.2   -2.1    2.3
P     2.7   -0.1    2.4
I     0.7    2.3    2.9
H     2.6    3.0   -0.1
I    -1.1    4.2   -0.8
H     1.4    4.2   -0.1
I     0.4   -1.9   -4.1
H     2.6   -3.3   -1.5
N     2.4    4.0   -0.2
H    -1.0   -0.6    4.6
I    -3.7    1.9    2.3
H     1.3   -4.8   -0.1
P     2.9    0.1   -4.0
I    -1.3   -4.8   -0.8
H    -2.3    0.7    4.6
H     2.4    4.1   -2.3
P    -1.7    4.4    2.4
H     2.8   -4.5    0.6
H     2.9    4.5    0.6
C     2.8   -4.4   -1.5
I     1.0    2.7   -4.6
N     2.3   -4.9   -0.2
I    -4.4   -2.7    1.8
C    -1.8   -0.2    5.2
P    -1.9   -4.6    2.4
I     4.6   -2.7    1.8
C     3.0    4.6   -1.5
I    -3.5    2.1   -4.1
I    -4.0   -2.3   -3.5
H    -0.9   -0.4   -5.7
H     2.3   -4.9   -2.3
I     5.2    1.9    2.3
H    -2.6   -0.9    5.4
P    -1.6   -4.4   -4.0
H     4.0    4.4   -1.5
H    -2.1    0.8   -5.7
H     3.9   -4.6   -1.5
P    -1.5    4.6   -4.0
H     6.2   -1.1   -0.1
I     3.1   -0.5    5.6
H    -0.6    1.1    6.3
H     2.4   -5.9   -0.1
N    -1.3    0.4   -6.3
H     2.8    5.6   -1.5
I     4.9   -2.3   -3.5
H     6.5    0.4    0.6
I    -6.5    0.5   -0.8
H    -0.6    1.1   -6.5
H     3.2   -4.1    4.1
N    -1.3    0.4    6.5
H     3.0    3.3    4.9
P    -6.3   -0.1    2.4
H     1.6   -4.4    4.9
H    -4.9    4.4   -1.5
H     6.6    0.6   -1.8
H     1.7    4.6    4.9
N     6.9   -0.4    0.1
H    -5.1   -4.6   -1.5
H    -6.4    3.0   -0.1
H    -0.9   -0.4    7.0
I     5.5    2.1   -4.1
C     2.8    4.4    4.9
H     3.3    4.9    4.1
C     2.6   -4.6    4.9
P    -6.0    0.1   -4.0
I     0.3    6.9    2.3
I     0.5   -6.7    2.9
H    -6.3   -3.3   -1.5
I    -2.2   -4.2    5.6
H    -2.1    0.8    7.0
C     7.4    0.2   -1.2
H     3.0   -3.0    6.2
H    -6.1    4.5    0.6
I    -2.1    4.8    5.6
H    -6.2   -4.5    0.6
C    -6.1   -4.4   -1.5
C    -6.0    4.6   -1.5
N    -6.5    4.0   -0.2
H     7.7   -0.8    0.6
H     3.0   -3.0   -6.5
H     2.7   -4.5   -5.8
I    -4.3    6.3    1.8
C    -1.8   -0.2   -7.6
H     2.8    4.5   -5.8
I     0.9   -6.3   -4.6
I     3.1   -0.5   -7.2
H    -2.6   -0.9   -7.4
H     2.8   -5.6    4.9
H    -6.5    4.1   -2.3
I     4.7    6.3    1.8
N     3.2   -4.0    6.2
I    -5.8   -0.5    5.6
H     7.9   -0.7   -1.8
H     6.7    0.7    4.6
H    -0.9   -8.0   -1.0
H    -5.8   -4.1    4.1
I     0.5    7.1   -4.1
H    -1.0   -0.6   -8.2
H    -1.2    8.2    0.6
N    -6.7   -4.9   -0.2
H    -2.7    7.9   -0.1
H     8.2    0.9   -1.0
N     3.2   -4.0   -6.6
H     6.4   -0.9    5.4
I    -3.9   -7.1    2.3
H    -6.0    3.3    4.9
I    -3.9    6.7   -3.5
H    -2.3    0.7   -8.2
H    -6.2    5.6   -1.5
H    -0.9    8.3   -1.8
H    -5.7    4.9    4.1
H    -6.6   -4.9   -2.3
N     3.3    4.9    6.2
I    -2.2   -4.2   -7.2
H     4.2   -4.2    6.2
I     1.0    2.7    8.2
H    -7.6    4.2   -0.1
H     2.7   -4.5    7.0
H     2.8    4.5    7.0
P     7.2    4.4    2.4
I    -3.6   -6.9   -4.1
P     7.1   -4.6    2.4
C     7.1   -0.2    5.2
N    -1.9    8.6    0.1
H     4.2   -4.2   -6.5
H    -6.5   -5.9   -0.1
I     2.4   -8.5   -0.8
N     3.3    4.9   -6.6
H    -2.5   -8.4   -1.8
I    -2.1    4.8   -7.2
H    -4.8   -4.2    6.2
I     0.4   -1.9    8.7
I     7.8    4.2   -0.8
H     4.3    4.8    6.2
H    -2.6   -8.6    0.6
H     6.9    0.8   -5.7
C    -1.6   -8.8   -1.2
I     5.1   -7.1    2.3
C    -6.2    4.4    4.9
H     3.0    3.3   -7.9
H    -7.7   -4.8   -0.1
I     5.1    6.7   -3.5
I    -8.3    2.3    2.9
H    -4.8   -4.2   -6.5
I     7.7   -4.8   -0.8
H    -4.6    4.8    6.2
H    -5.9   -3.0    6.2
H     1.6   -4.4   -7.9
H     4.3    4.8   -6.5
H     3.2    5.9    6.2
H     7.9   -0.6    4.6
C    -6.3   -4.6    4.9
P     2.9    0.1    8.8
H     1.7    4.6   -7.9
I    -5.8   -0.5   -7.2
H    -4.6    4.8   -6.5
C    -1.4    9.1   -1.2
H    -5.9   -3.0   -6.5
I    -8.8   -2.1    2.3
H     3.2    5.9   -6.5
N    -5.8   -4.0    6.2
C     2.8    4.4   -7.8
P     7.3   -4.4   -4.0
C     2.6   -4.6   -7.8
H    -6.1    4.5   -5.8
I    -7.9    2.7   -4.6
H    -0.9    8.4    4.6
N    -2.2   -9.3    0.1
P     2.8    8.8    2.4
I     5.3   -6.9   -4.1
I    -3.5    2.1    8.7
H    -6.3   -4.5   -5.8
I     9.1   -2.1    2.3
P     7.5    4.6   -4.0
N    -5.8   -4.0   -6.6
H    -6.1   -5.6    4.9
H    -2.4    9.3    0.6
I     6.7   -4.2    5.6
I    -8.6   -1.9   -4.1
N    -5.7    4.9    6.2
P     2.5   -9.1    2.4
H     6.4   -0.9   -7.4
H    -2.4   -8.3    4.6
H    -9.7    0.9   -1.0
I     2.6    9.4   -0.8
H    -1.2   -9.6   -1.8
H    -7.4   -4.4    4.9
H    -7.3    4.6    4.9
H     6.9    0.8    7.0
H    -1.4   -9.8    0.6
H     8.1   -0.4   -5.7
N     7.7    0.4   -6.3
H    -0.6    9.9   -1.0
P    -1.6   -4.4    8.8
N    -5.7    4.9   -6.6
H    -2.2    9.6   -1.8
H    -2.5    8.0    5.4
N     7.7    0.4    6.5
P    -1.5    4.6    8.8
I     6.9    4.8    5.6
H     3.2   -4.1   -8.7
P     2.8   -8.8   -4.0
H     6.3    7.9   -0.1
H     2.8   -5.6   -7.9
H    -0.7   -7.9    6.3
I     0.7    2.3   -9.9
H    -2.2   -8.2   -5.7
H    -0.7   -7.9   -6.5
H   -10.0   -0.7   -1.8
I     9.6    2.3    2.9
H    -6.1    4.5    7.0
H   -10.3   -0.8    0.6
I     0.9   -6.3    8.2
H    -0.7    8.6   -5.7
C    -1.7    8.8    5.2
I    -4.0   -2.3    9.3
I     9.3   -1.9   -4.1
P     3.1    9.1   -4.0
H    -5.8    5.9    6.2
C     7.1   -0.2   -7.6
H    -6.3   -4.5    7.0
H    -6.0    3.3   -7.9
H    -2.9  -10.0   -0.1
I     5.5    2.1    8.7
H     3.3    4.9   -8.7
C   -10.5    0.2   -1.2
H     8.4    1.1    6.3
H    -5.8    5.9   -6.5
H     6.7    0.7   -8.2
H     8.4    1.1   -6.5
I     3.2    8.5    5.6
I     0.2   -2.1  -10.4
P    -6.0    0.1    8.8
C    -2.0   -9.1    5.2
H    -1.2   -9.6    4.6
H     6.3   -8.6    0.6
I     6.7   -4.2   -7.2
P     2.7   -0.1  -10.4
H     8.1   -0.4    7.0
H     6.5   -8.4   -1.8
I     4.9   -2.3    9.3
N    -1.4   -8.6   -6.3
I    -6.6   -8.5   -0.8
N    -1.4   -8.6    6.5
H    -2.1    9.6    4.6
C    -6.2    4.4   -7.8
I   -10.1    4.2   -0.8
H    -2.2   -8.2    7.0
H   -10.0   -0.6    4.6
H    -1.0   -9.3   -5.7
N   -11.0   -0.4    0.1
P    -6.2    8.8    2.4
I     6.9    4.8   -7.2
C    -6.3   -4.6   -7.8
H    -1.1   -0.7   11.0
N     7.0    8.6    0.1
H    -0.7    8.6    7.0
I    -8.4   -6.7    2.9
H    10.4    4.2   -0.1
H    -2.5    8.0   -7.4
H    -5.8   -4.1   -8.7
I    -8.1   -6.3   -4.6
I     0.5    7.1    8.7
I    -3.7    1.9  -10.4
H    -2.3    0.6   11.0
H    10.2   -4.8   -0.1
I     0.0  -11.0    2.3
H     7.8    8.2    0.6
I    -8.7    6.9    2.3
I   -10.2   -4.8   -0.8
N    -1.2    9.3   -6.3
I    10.0    2.7   -4.6
I     3.0   -9.4    5.6
P    -1.7    4.4  -10.4
P    -6.4   -9.1    2.4
H    -9.8   -0.4   -5.7
H     7.9   -0.6   -8.2
N    -1.2    9.3    6.5
I    -6.3    9.4   -0.8
H     8.1   -8.0   -1.0
H   -11.3    0.6   -1.8
H    -5.7    4.9   -8.7
H   -11.4    0.4    0.6
H     6.6    9.3    0.6
H    -6.1   -5.6   -7.9
H    -9.5    1.1    6.3
P    -1.9   -4.6  -10.4
P    -6.2   -8.8   -4.0
H    -1.9    9.8   -5.7
I    11.4    0.5   -0.8
H     2.4    4.1   10.5
C     7.3   -8.8   -1.2
H     6.6   -8.3    4.6
N     6.8   -9.3    0.1
P    -5.9    9.1   -4.0
I     0.2  -10.8   -4.1
H    -9.5    1.1   -6.5
I     3.2    8.5   -7.2
H    -2.7   -9.9    5.4
I    -5.7    8.5    5.6
I    -3.6   10.8    2.3
C    -1.5    0.2   11.6
I     0.8   11.3    2.9
H    -7.4   -4.4   -7.9
H    -7.3    4.6   -7.9
H     6.5    8.0    5.4
H     8.0    8.3   -1.8
I    -3.6   -6.9    8.7
I    -7.9    2.7    8.2
H    -0.9    8.4   -8.2
H     6.0  -10.0   -0.1
H    -1.0   -9.3    7.0
C    -1.7    8.8   -7.6
I     9.2    6.9    2.3
I    -8.5    7.1   -4.1
H     2.3   -4.9   10.5
H   -11.7   -1.1   -0.1
P   -10.7    4.4    2.4
I     5.2    1.9  -10.4
H    -0.8    0.9   11.8
H     6.8    9.6   -1.8
H    -0.4   10.0    6.3
H    -2.4   -8.3   -8.2
P    11.6   -0.1    2.4
H    11.5    3.0   -0.1
C     7.6    9.1   -1.2
I     0.5   -6.7   -9.9
I     9.5   -6.7    2.9
H    -0.4   10.0   -6.5
C   -10.8   -0.2    5.2
P   -10.8   -4.6    2.4
C    -2.0   -9.1   -7.6
H     2.6   -3.3   11.3
I    -3.9    6.7    9.3
H     6.8   -8.2   -5.7
N   -10.3    0.4   -6.3
N    11.4    4.0   -0.2
P   -10.5    4.6   -4.0
H    -9.8   -0.4    7.0
P    -6.3   -0.1  -10.4
P   -10.6   -4.4   -4.0
I    -4.4   -2.7  -11.0
N   -10.3    0.4    6.5
H    11.6   -3.3   -1.5
H   -11.2    0.7    4.6
H    -1.9    9.8    7.0
I     4.6   -2.7  -11.0
H    -1.3   -0.8  -12.1
I     2.5    0.5   11.9
I     3.0   -9.4   -7.2
I    -3.4   11.0   -4.1
P     7.3   -4.4    8.8
H     2.7   12.0   -0.1
N    11.3   -4.9   -0.2
I     5.4   10.8    2.3
I     5.3   -6.9    8.7
H    11.4    4.1   -2.3
H     7.5   -9.8    0.6
I    -8.6   -1.9    8.7
H    -2.5    0.4  -12.1
H    10.5   -4.4    4.9
P     7.5    4.6    8.8
C     2.8   -4.4   11.3
H   -11.0    0.8   -5.7
I     5.1    6.7    9.3
H     7.7   -9.6   -1.8
I    -6.0   -9.4    5.6
H     8.1    8.4    4.6
I    -5.7    8.5   -7.2
H    11.3   -4.9   -2.3
I    -4.1  -11.3   -3.5
I     0.3    6.9  -10.4
I     9.5    7.1   -4.1
C     7.2    8.8    5.2
P    11.9    0.1   -4.0
C     3.0    4.6   11.3
H    11.7   -4.5    0.6
I     1.2   11.6   -4.6
I     9.9   -6.3   -4.6
I     4.4  -11.6    1.8
H    10.7    4.6    4.9
C     7.0   -9.1    5.2
I    -4.5  -11.6    1.8
H     2.5  -12.3   -1.5
H    -2.7   -9.9   -7.4
H    -1.2   -9.6   -8.2
C    11.8   -4.4   -1.5
H     6.8    9.6    4.6
H     6.5    8.0   -7.4
H    11.9    4.5    0.6
I    -1.1    4.2   11.9
