         400
 sphere cut out from bulk 
P     0.1    0.0   -0.0
I    -1.8    0.4   -2.6
I    -2.4    0.4    2.0
I     0.9    3.1    0.2
I    -0.6   -3.2   -0.0
I     2.0   -0.5    2.6
I     2.6   -0.5   -2.0
H     0.4    2.3    3.1
H    -0.1   -2.2   -3.2
H     0.4   -2.3    3.5
H    -2.8    3.1   -0.9
H    -3.1   -3.2   -0.7
H     3.1   -3.1    0.9
H    -3.9    2.2    1.0
H     3.4    3.1    0.6
C    -0.2    2.7    4.0
H    -1.2    3.0    3.6
C     0.3   -3.1   -3.7
H    -4.1   -2.2    1.3
H    -0.3    1.9   -4.5
H     4.2   -2.3   -1.1
H     1.4   -3.1   -3.6
N    -0.0   -3.1    4.0
H    -4.4    2.2   -1.3
H    -1.1   -3.1    3.9
C    -3.9    3.1   -0.9
H     4.4    2.2   -1.3
H    -0.3    1.9    4.7
H    -0.1   -4.0   -3.2
H    -4.5   -2.3   -1.1
N    -4.1   -3.2   -0.6
H     4.6   -2.2    1.3
H     0.4   -3.9    3.5
C     4.2   -3.1    0.8
N    -4.3    3.1    0.6
H     4.8    2.2    1.0
N     4.4    3.1    0.6
C    -4.5   -3.1    0.8
H    -3.9    3.9    1.0
N     4.6   -3.2   -0.6
H     1.4    3.6   -4.3
C     4.8    3.1   -0.9
H    -0.1    4.3   -3.9
H    -4.1   -4.0    1.3
H     4.2   -4.0   -1.1
C    -0.2    2.7   -5.3
N     0.5    3.9    4.5
N    -0.0   -3.1   -5.2
H     0.6    4.6    3.8
H    -4.3    4.0   -1.3
H     0.4   -2.3   -5.6
N     0.5    3.9   -4.7
H     4.4    4.0   -1.3
H    -4.5   -4.0   -1.1
H    -1.1   -3.1   -5.2
H    -5.4    3.1    0.6
H     1.4    3.6    4.9
P     0.2    6.2   -0.0
C     0.3   -3.1    5.4
H     4.6   -4.0    1.3
H    -0.1   -2.2    5.9
P    -4.3   -0.0   -4.6
P    -4.3   -0.0    4.6
H     4.9    3.9    1.0
P     0.1   -6.4   -0.0
P     4.5   -0.0   -4.6
P     4.5   -0.0    4.6
I    -6.1   -0.5   -2.0
H     1.4   -3.1    5.5
H    -5.6   -3.1    0.9
H    -1.2    3.0   -5.6
H     5.7   -3.2   -0.7
I    -2.4    5.8    2.0
H     0.4    2.3   -6.1
I    -1.7    5.8   -2.6
I    -3.6   -3.2    4.5
I     6.3    0.4    2.0
I     3.9    3.1   -4.5
I    -3.6   -3.2   -4.6
I     2.7   -5.9   -1.9
H     5.9    3.1   -0.9
I     1.9   -5.9    2.7
H    -0.1    4.3    5.3
I    -1.8    0.4    6.6
H     0.4   -3.9   -5.6
I     2.0   -0.5   -6.6
I     3.9    3.1    4.8
H     0.6    4.6   -5.4
H    -0.1   -4.0    5.9
I    -6.8   -0.5    2.6
I    -4.9    3.1   -4.5
I     7.0    0.4   -2.6
I    -4.9    3.1    4.8
I     1.9    6.7    2.7
I    -1.7   -6.8   -2.6
I    -2.4    0.3   -7.1
I     2.7    6.8   -1.9
I    -2.4   -6.9    2.0
I     5.2   -3.2    4.5
I     5.1   -3.2   -4.6
I     2.6   -0.6    7.2
I    -7.9    3.1    0.2
P    -8.7    0.0   -0.0
I    -6.1   -5.9   -1.9
H    -7.3   -3.1   -3.6
P    -4.2    6.3   -4.6
I     8.2   -3.2   -0.0
I     6.4    5.8    2.0
P    -4.2    6.3    4.6
P    -4.2   -6.3    4.6
P     8.9    0.0   -0.0
H     0.6   -8.0    3.8
P    -4.3   -6.4   -4.6
H     7.6    3.0    3.6
I    -1.7    5.8    6.6
I     1.9   -5.9   -6.5
P     4.6    6.3   -4.6
P     4.5   -6.3    4.6
P     4.5   -6.4   -4.6
P     4.6    6.3    4.6
H    -4.1   -2.2   -7.8
P     0.1    0.0    9.1
H     4.0    2.1    7.9
H     7.7   -3.1    3.9
H    -0.2   -8.3   -3.9
P     0.1   -0.0   -9.2
H    -0.0    8.6   -3.2
H    -8.4    2.3    3.1
H    -7.4    3.6   -4.3
I    -6.1    6.8   -1.9
H     3.1   -3.2   -8.2
H     4.6   -2.2   -7.8
H     0.4    8.7    3.5
H    -8.4   -2.3    3.5
I    -0.5    9.4   -0.0
I    -6.1   -0.6    7.2
H     4.2   -2.3    8.1
H    -4.7    2.1    7.9
I    -6.8   -0.5   -6.6
I    -6.9   -5.9    2.7
I     1.9    6.7   -6.5
I     0.8   -9.5    0.2
I     7.1    5.8   -2.6
H    -7.3    3.6    4.9
I     6.3   -6.9    2.0
I    -2.4    5.8   -7.2
H     8.7   -2.2   -3.2
H    -3.4    4.1    7.9
H    -3.1   -3.1    8.5
I     6.4    0.3   -7.1
H    -4.5   -2.3    8.1
H    -4.1    8.6    1.3
H    -4.0   -8.7    1.0
I     7.0    0.4    6.6
I     0.7    3.1   -9.1
I    -0.5   -3.2    9.1
I    -1.8   -6.8    6.6
H     0.6   -8.0   -5.4
H    -8.8   -2.2   -3.2
H     3.8    2.3   -8.6
H     4.3    8.6   -1.1
H    -7.3   -3.1    5.5
H    -4.1   -4.0   -7.8
C    -8.4   -3.1   -3.7
I     2.7   -5.9    7.3
H     8.4    1.9   -4.5
H    -4.5    8.6   -1.1
H     4.4   -8.6   -1.3
H    -3.3    2.0    9.0
H    -4.4   -8.6   -1.3
C     4.2   -3.1   -8.3
I     0.8    3.2    9.2
H     7.7   -3.1   -5.2
C     8.6    2.7    4.0
I    -0.6   -3.2   -9.3
N     0.4   -8.7    4.5
I    -9.3   -3.2   -0.0
H     4.7    8.6    1.3
H    -0.1   -8.3    5.3
H     7.6    3.0   -5.6
H    -8.4   -3.9    3.5
N     0.4   -8.7   -4.7
H     8.5    1.9    4.7
H     4.6   -4.0   -7.8
C    -4.6   -3.1   -8.3
H    -3.0    9.5   -0.7
I    -6.8    6.7    2.7
H     9.2    2.3    3.1
H     4.8   -8.7    1.0
H     4.3   -4.0    8.2
H    -2.9   -9.5   -0.9
H     3.2    9.5    0.9
N    -4.1   -3.1    8.6
H     9.2   -2.3    3.5
H     8.7   -4.0   -3.2
H    -3.3    2.0   -9.3
N     8.8   -3.1    4.0
H     1.3   -9.0   -4.3
H     3.4   -9.5    0.6
H    -8.2    4.6    3.8
C    -4.3    2.4    8.9
I     9.6    3.1    0.2
H    -4.5   -4.0    8.2
N    -8.8   -3.1    4.0
I     7.0   -6.8   -2.6
C    -9.0    2.7    4.0
H    -5.0    2.3   -8.6
I    -2.5   -6.8   -7.2
C     0.4    9.5   -3.7
N    -8.3    3.9    4.5
C     4.5    2.4    8.9
H    -8.9   -4.0   -3.2
N     4.7   -3.1    8.6
H     1.5    9.5   -3.6
I     2.8    6.7    7.3
N    -8.3    3.9   -4.7
H     3.8    4.4    8.5
N     0.0    9.5    4.0
C     9.1   -3.1   -3.7
N    -4.1    9.5   -0.6
H    -1.0    9.5    3.9
H     1.4   -9.0    4.9
H     0.4    8.7   -5.6
H    -9.1    1.9   -4.5
H    -8.4   -2.3   -5.6
N    -4.0    3.9    8.7
C    -4.0   -9.5   -0.9
H    -1.2   -9.6    3.6
H    -9.0    1.9    4.7
C     8.5    2.7   -5.3
H    -5.6   -3.2   -8.2
H     5.4    4.1    7.9
H     8.7    4.3   -3.9
C     4.3    9.5    0.8
H    -3.7    4.3   -8.8
H    -0.0    8.6    5.9
C    -8.4   -3.1    5.4
N    -4.4   -9.5    0.6
N     4.4   -9.5    0.6
C    -4.5    9.5    0.8
H     9.1   -3.9    3.5
N     4.7    9.5   -0.6
H    -8.9    4.3   -3.9
N     8.7   -3.1   -5.2
P    -8.6    6.2   -0.0
H    -8.4    2.3   -6.1
N     4.7    3.9    8.7
N    -8.8   -3.1   -5.2
C    -4.3    2.4   -9.5
C     4.8   -9.5   -0.9
H     5.7   -3.1    8.5
H     3.9    2.3    9.7
C    -0.2   -9.9    4.0
H     5.5    2.0    9.0
H     8.7   -2.2    5.9
C     4.4    2.4   -9.5
P    -8.7   -6.4   -0.0
H    -4.9    4.4    8.5
H     0.4  -10.3    3.1
H    -3.2   -3.1   -9.8
C    -9.0    2.7   -5.3
H    -8.1    4.6   -5.4
N     0.0    9.5   -5.2
H    -8.8   -2.2    5.9
H    -8.4   -3.9   -5.6
I   -10.6    0.4   -2.6
P     8.9    6.2   -0.0
H    -0.0   10.4   -3.2
P     8.9   -6.4   -0.0
H    -1.0    9.5   -5.2
H     0.4   10.3    3.5
H     9.1   -2.3   -5.6
H     5.4    2.0   -9.3
C     0.4    9.5    5.4
H    -5.4   -9.5    0.6
H     5.1    4.3   -8.8
I    -3.5    9.4    4.5
H   -10.0    3.0    3.6
H    -9.8   -3.1    3.9
N     9.2    3.9    4.5
N    -4.2   -3.2   -9.7
H    -5.6    9.5    0.9
N     9.2    3.9   -4.7
H     8.7    4.3    5.3
C     9.1   -3.1    5.4
I    -3.6    9.4   -4.6
I    10.7   -0.5    2.6
P     0.1    6.3   -9.1
H     5.7    9.5   -0.7
H     3.2   -3.1   10.1
H     1.5    9.5    5.5
H    -4.9    2.3    9.7
H    -3.6    4.3    9.6
P     0.1   -6.3   -9.1
H     9.4    4.6    3.8
P     0.2    6.3    9.2
I    -6.9   -5.9   -6.5
I    -6.1   -5.9    7.3
I     3.8   -9.5   -4.5
P     0.1   -6.3    9.2
H    -4.0  -10.4    1.0
N    -4.1    3.9   -9.6
H    -8.9    4.3    5.3
H    -1.3   -9.6   -5.6
N     4.6   -3.2   -9.7
H     4.3   10.3   -1.1
I     6.4    5.8   -7.2
H     9.1    2.3   -6.1
C    -0.3   -9.9   -5.3
H     8.7   -4.0    5.9
H    -4.1   10.4    1.3
H     5.9   -9.5   -0.9
H     4.2   -2.3  -10.2
I     7.1    5.8    6.6
H    10.2   -3.1   -3.6
H    -4.5   10.3   -1.1
I     3.9   -9.5    4.8
H     4.0    2.1  -10.4
H    -8.9   -4.0    5.9
C     4.3   -3.1   10.1
N     4.7    3.9   -9.6
I   -11.2    0.4    2.0
H     4.4  -10.4   -1.3
H     3.8    4.4   -9.8
H    -4.4  -10.4   -1.3
H    -4.6   -2.3  -10.2
H     9.1   -3.9   -5.6
I    -2.3    0.3   11.2
C    -4.5   -3.1   10.1
I     2.6   -0.6  -11.1
H     4.8  -10.4    1.0
H     4.7   10.4    1.3
H    -4.1   -2.2   10.5
I    -6.9    6.7   -6.5
H    -9.8   -3.1   -5.2
I    11.4   -0.5   -2.0
I    -6.0    6.7    7.3
I    -4.9   -9.5   -4.5
H    -0.4  -10.7   -4.5
H    -4.8    2.1  -10.4
H    10.2    3.6   -4.3
I     5.2    9.4    4.5
I    -4.9   -9.5    4.8
H     5.1    4.3    9.6
I     5.2    9.4   -4.6
H    -3.5    4.1  -10.4
H     4.2   -4.0  -10.2
H    -0.3  -10.7    4.7
H     4.7   -2.2   10.5
I     6.3   -6.8   -7.2
H     5.6   -3.1   -9.8
H     9.4    4.6   -5.4
H     0.4   10.4   -5.6
I     7.0   -6.8    6.6
H    -4.6   -4.0  -10.2
H   -10.0    3.0   -5.6
H    -5.0    4.4   -9.8
I    -1.9    0.3  -11.7
H    10.2    3.6    4.9
I     2.0   -0.5   11.7
H     0.3  -10.3   -6.1
H    -0.0   10.4    5.9
H    -4.1   -4.0   10.5
H    -5.6   -3.1   10.1
H    10.2   -3.1    5.5
H   -11.6    3.1   -0.9
H    -8.2   -8.0    3.8
H    -3.4   -8.5    7.9
I   -10.4    5.8   -2.6
H     4.7   -4.0   10.5
H    -4.1    8.6   -7.8
H   -11.9   -3.2   -0.7
H    11.9   -3.1    0.9
H     5.3    4.1  -10.4
I    -8.0   -9.5    0.2
H     3.8   -8.2    8.5
H     0.4    2.3   12.2
H    -7.4   -9.0   -4.3
I   -10.6    0.4    6.6
I    10.6   -5.9    2.7
H    -7.3    9.5   -3.6
H     4.7    8.6   -7.8
I     8.3    9.4   -0.0
I     2.7   12.1   -2.0
I    -8.0    3.1   -9.1
H    -8.3    8.7    3.5
I     2.0   12.1    2.6
P    -8.6    0.0    9.1
H    12.2    3.1    0.6
I    -2.5  -12.2    2.0
H     8.6   -8.3   -3.9
I    10.7   -0.5   -6.6
I    -8.0    3.2    9.2
P     0.1  -12.6   -0.0
P     0.2   12.6   -0.0
H     4.3    8.6    8.2
I    -1.9  -12.2   -2.6
H    -3.8   -8.3   -8.8
H    -7.4   -9.0    4.9
H    -0.1   -2.2  -12.4
