         400
 sphere cut out from bulk 
H    -0.7   -0.8    1.2
H     0.5    0.3    2.0
C    -0.0   -0.7    2.1
I    -2.4   -0.1   -1.1
H     0.7   -1.5    2.1
I     2.1   -0.8   -1.6
H    -0.7    1.8   -2.4
I     1.4    2.9    1.1
H     0.5    2.9   -1.7
P    -0.5   -2.2   -2.6
N    -0.9   -0.7    3.3
H    -1.6    0.1    3.3
C    -0.0    2.7   -2.6
H    -1.4   -1.6    3.4
I    -0.7   -4.1   -0.0
H    -0.3   -0.6    4.1
P     4.0    1.4    0.0
H     0.7    2.5   -3.4
I     4.0   -0.6    2.5
H    -1.6    4.1   -2.2
N    -0.9    3.8   -3.0
I    -3.1    3.5    1.5
H     2.6   -4.2    0.2
H    -3.4   -3.7    0.1
P    -5.0    1.4    0.0
H     4.4   -2.7    0.8
I    -0.7   -0.4   -5.2
H     4.4   -2.9   -0.8
H    -4.6   -2.7    0.8
H    -4.5   -2.9   -0.8
H    -1.4    3.7   -3.9
N    -4.4   -3.4    0.1
P    -0.5    5.0    2.6
I    -5.0   -0.6    2.5
H    -0.3    4.7   -3.1
N     4.5   -3.4    0.1
I     4.0    3.2   -2.7
C     3.6   -4.6    0.3
H     4.4   -0.8   -3.8
H    -3.4   -0.1   -4.8
H     2.6   -0.2   -5.4
H    -4.5   -0.8   -3.8
H     4.4    0.9   -4.1
I    -3.3   -3.7   -3.6
I    -0.7    3.1    5.2
I    -2.4   -3.8    4.2
I     2.0   -4.5    3.7
I     1.1   -4.4   -4.2
H    -4.6    0.9   -4.1
H     3.9    2.2    4.3
N    -4.4   -0.0   -4.5
N     4.5   -0.0   -4.5
I     1.1   -0.9    6.3
H     3.8   -5.0    1.2
I    -5.0    3.2   -2.7
H     3.9   -5.3   -0.5
H     2.6    3.3    5.1
P    -0.6   -6.0    2.6
I     6.5   -0.1   -1.1
H     5.5   -3.7    0.1
C     3.6   -0.3   -5.7
C     3.7    3.2    4.7
H     3.9    4.0    4.0
P     3.8   -2.4    5.2
I     5.8    3.5    1.5
I    -0.7    6.9   -0.0
H     3.9    5.7   -0.5
C    -5.3   -4.6    0.3
H    -5.0    2.2    4.3
I    -6.8   -0.8   -1.6
H    -0.3   -6.3   -3.1
H     3.9    6.0    1.2
H    -5.1   -5.0    1.2
H     2.6    6.8    0.2
H    -5.1   -5.3   -0.5
H     5.5   -0.1   -4.8
H     3.9   -1.2   -6.1
H    -3.4    3.4    5.6
C     3.7    6.4    0.3
H    -1.6   -6.9   -2.2
H    -0.3   -4.0   -6.3
H     3.8    0.5   -6.4
I    -3.3   -0.2    6.8
H    -5.1    4.0    4.0
H    -6.3   -4.2    0.2
I     5.6   -3.7   -3.6
H    -5.0    5.7   -0.5
I    -2.4    3.7   -6.2
I     2.0    3.0   -6.7
P    -5.1   -2.4    5.2
I     2.0    6.5    3.7
H    -1.4   -3.9    6.6
C    -5.3    3.2    4.7
C    -5.3   -0.3   -5.7
N    -0.9   -7.1   -3.0
H    -0.3   -2.8    7.3
I     1.1    6.6   -4.2
H    -5.1    6.0    1.2
P    -0.5    1.3    7.9
P    -0.6    1.5   -7.8
H     7.3    0.1    3.3
H    -5.1   -1.2   -6.1
H    -3.4    7.3    0.1
H    -1.6   -3.4   -7.2
N    -4.4    3.4    5.9
I    -7.6    2.9    1.1
N     4.6    3.4    5.9
H    -5.1    0.5   -6.4
H     0.5   -8.1   -1.7
P     3.8    5.2   -5.2
I    -3.2   -7.5    1.5
I     1.3   -8.1    1.1
H    -6.3   -0.2   -5.4
C    -5.3    6.4    0.3
N    -0.9   -4.1   -7.2
H     8.2   -0.8    1.2
N    -0.9   -3.7    7.5
H     4.4    2.7    6.6
H     7.5   -1.6    3.4
H    -1.4   -7.3   -3.9
H    -4.5    2.7    6.6
H     5.6    3.4    5.6
I     6.5   -3.8    4.2
I    -2.4    7.2    4.2
H    -8.3   -1.5    2.1
H    -8.4    0.3    2.0
P     3.8   -5.8   -5.2
H     0.7   -5.0    7.0
H     7.3    4.1   -2.2
N     8.0   -0.7    3.3
H    -6.3    3.3    5.1
C    -0.1   -8.3   -2.6
H     8.2    1.8   -2.4
N    -4.4    7.6    0.1
H    -1.4   -5.0   -7.0
I     5.6   -0.2    6.8
I    -3.3    7.3   -3.6
H     4.4    4.4    6.3
N     4.6    7.6    0.1
H     3.8   -7.0    4.0
H    -4.5    4.4    6.3
P    -5.1    5.2   -5.2
H     0.5   -3.2   -8.4
H    -1.6   -3.5    8.2
P     8.4   -2.2   -2.6
I    -6.9   -4.5    3.7
H    -8.4    2.9   -1.7
C     8.9   -0.7    2.1
I     8.2   -4.1   -0.0
I     3.9   -7.8   -2.7
P    -0.5    8.8   -2.6
H     0.6   -8.5   -3.4
H     5.6    7.3    0.1
H     7.5    3.7   -3.9
C    -9.0   -0.7    2.1
C    -0.0   -4.8    7.8
H     4.4    8.1   -0.8
H     0.7    6.0    7.0
H    -6.3    6.8    0.2
H    -8.3    2.5   -3.4
H    -4.5    8.1   -0.8
H    -1.4    6.0   -7.0
P    -5.1   -5.8   -5.2
C    -0.1   -4.1   -8.4
N     8.0    3.8   -3.0
H    -0.3    7.0   -6.3
H     4.4    8.3    0.8
I    -3.2    0.0   -8.9
I     1.3   -0.6   -9.3
I    -0.7   -7.9    5.2
I     2.2    2.7    8.9
H    -4.5    8.3    0.8
H    -5.1   -7.0    4.0
H    -0.7   -9.2   -2.4
I     5.7   -7.5    1.5
H     8.6   -0.6    4.1
H    -0.7    5.3    8.0
H     2.6   -7.7    5.1
H     9.4    0.3    2.0
C     8.9    2.7   -2.6
I    -5.0   -7.8   -2.7
H     0.6   -5.0   -8.3
I     8.2   -0.4   -5.2
C    -9.0    2.7   -2.6
I     3.9   -4.1   -7.9
H    -9.6   -0.8    1.2
I     4.0   -4.4    7.7
H     0.7    9.5    2.1
I     6.5    3.7   -6.2
H    -1.4    7.1    6.6
C     3.6   -7.8    4.7
H    -0.7   -5.7    8.0
I    -2.4   -7.3   -6.2
H     0.5   -4.6    8.8
I    -7.8   -4.4   -4.2
I     5.6    7.3   -3.6
H     9.6   -1.5    2.1
N    -0.9    6.9   -7.2
C    -0.0    6.1    7.8
H     9.4    2.9   -1.7
H    -3.4   -7.6    5.6
P    -9.5   -2.2   -2.6
I    -7.8   -0.9    6.3
P     8.4    5.0    2.6
H    -9.6    1.8   -2.4
H    -1.4    9.4    3.4
H    -9.2   -0.6    4.1
I    -6.9    3.0   -6.7
H     4.4   -6.6    6.3
I    -5.0   -4.4    7.7
I    -6.9    6.5    3.7
I    -5.0   -4.1   -7.9
I    -2.4    3.3    9.3
H    -0.7   -4.3   -9.2
I     8.2    3.1    5.2
H    -4.6   -6.6    6.3
H    -0.7   10.2    1.2
H     0.7    6.0   -8.3
H     3.8    2.5   -9.2
H     8.6    4.7   -3.1
H     7.3   -6.9   -2.2
P     3.9   -9.6    0.0
N    -9.8   -0.7    3.3
H     9.6    2.5   -3.4
I    -0.7   -0.6   10.4
I    -9.6   -4.1   -0.0
N    -0.9    7.3    7.5
H     3.9   -8.8    4.3
C    -0.0   10.3    2.1
C    -5.3   -7.8    4.7
N    -4.4   -7.6    5.9
I     2.2   10.2   -1.6
H     4.4    0.5    9.6
H    -1.6    7.6   -7.2
I     5.7    0.0   -8.9
I     6.6    7.2    4.2
I     2.0   -8.0   -6.7
N     4.5   -7.6    5.9
H    -4.5    0.5    9.6
P     8.4   -6.0    2.6
H     7.5   -3.9    6.6
I     8.2    6.9   -0.0
I    10.3    2.9    1.1
H     3.9   -1.8    9.9
H     7.3   -3.4   -7.2
P    -5.0   -9.6    0.0
P     3.8    8.6    5.2
H    -9.2    4.7   -3.1
H    -5.1    2.5   -9.2
C    -0.0    6.9   -8.4
H     0.5    6.4    8.8
N    -0.9   10.3    3.3
H     0.5  -10.7    2.0
H    -0.3    8.1    7.3
I     4.0    6.6    7.7
N    -9.8    3.8   -3.0
H     5.5   -7.6    5.6
I    -9.6   -0.4   -5.2
H     2.6   -0.8   10.6
H   -10.3   -1.6    3.4
P    -9.5    5.0    2.6
H    -5.1   -8.8    4.3
H   -10.5    0.1    3.3
I    -0.7    3.4  -10.4
I    -7.8    6.6   -4.2
H     2.6    3.3  -10.2
H    -3.4   -0.2   10.6
H     8.6   -6.3   -3.1
N     8.0   -7.1   -3.0
I    -7.6   -8.1    1.1
I    -2.4   10.9   -1.1
H     7.5   -7.3   -3.9
I    11.0   -0.8   -1.6
H    -6.3   -7.7    5.1
I     4.0    6.9   -7.9
C     3.6    3.0  -10.2
H    -0.3   10.4    4.1
H    -5.0   -1.8    9.9
H    -1.6    7.5    8.2
P     3.9   -2.0  -10.4
P    -5.1    8.6    5.2
I    -4.9    6.6    7.7
C     3.7   -1.1   10.7
I   -11.3   -0.1   -1.1
N    -4.4    0.1   10.5
I    -9.6    3.1    5.2
H     8.6   -4.0   -6.3
I     4.0   10.4    2.5
I    -2.4  -11.1   -1.1
H    -0.7    6.7   -9.2
H     7.5   -5.0   -7.0
H     0.5   11.3    2.0
N     4.6    0.1   10.5
I    -6.8    2.7    8.9
H     4.4   -8.3    6.6
H    -1.6  -10.9    3.3
H   -10.5    4.1   -2.2
N     8.0   -4.1   -7.2
H    -3.4    3.9  -10.3
H     0.5    7.8   -8.4
H     7.3   -3.5    8.2
H    -4.5   -8.3    6.6
P    -9.5   -6.0    2.6
P     8.4    1.5   -7.8
N     8.0   -3.7    7.5
P     8.4    1.3    7.9
I     6.5   -7.3   -6.2
I    -5.0    6.9   -7.9
H   -10.3    3.7   -3.9
H     4.4    4.9   -9.6
H    -9.2   -6.3   -3.1
H     8.6   -2.8    7.3
H    -1.6   11.1    3.3
H    -4.6    4.9   -9.6
I    10.0   -4.4   -4.2
P    -5.0   -2.0  -10.4
H     4.3  -10.1   -4.1
H     4.4   10.2   -3.8
I    -4.9   10.4    2.5
H    -8.5   -8.1   -1.7
H    -4.5   10.2   -3.8
H    -4.6  -10.1   -4.1
I    -9.6    6.9   -0.0
C    -0.1  -11.7    2.1
C    -5.3    3.0  -10.2
H     3.9    2.3  -11.0
I    10.0   -0.9    6.3
I    -0.7   10.6   -5.2
H    -0.7  -11.8    1.2
I     1.1   10.0    6.3
I     6.5    3.3    9.3
H    -9.2   -4.0   -6.3
H     7.5    6.0   -7.0
H    -0.7    2.7   11.6
H     5.6   -0.2   10.6
C    -5.3   -1.1   10.7
H    -8.3   -5.0    7.0
N    -4.4    4.1  -10.3
N     4.5    4.1  -10.3
I    -7.6   -0.6   -9.3
I     2.1  -11.8   -1.6
H    -9.2   -2.8    7.3
H     4.4    0.8   11.3
H     0.5   -0.5  -12.1
N    -0.9  -11.7    3.3
H     3.9    9.7   -6.1
H    -4.5    0.8   11.3
H     4.3   -6.1   -9.6
P     4.0    4.9   10.5
H    11.5   -4.2    0.2
H    -0.3  -11.6    4.1
H     7.5    7.1    6.6
H    -4.6   -6.1   -9.6
H    -5.1    2.3  -11.0
I    -2.4   -3.6  -11.5
H     5.5    3.9  -10.3
I    -2.4   -7.7    9.3
H     2.6   10.8   -5.4
P    -9.4    1.3    7.9
P    -0.6   -9.5   -7.8
I     2.1   -8.3    8.9
I    -6.8   10.2   -1.6
H    -8.3   -8.5   -3.4
H    -8.2    6.0    7.0
H    -8.5   -3.2   -8.4
H    -6.3   -0.8   10.6
I    10.9   -4.5    3.7
H     3.9   -1.5   11.7
H    -3.4   10.9   -4.8
P    -9.5    1.5   -7.8
C     8.9   -8.3   -2.6
P     8.4    8.8   -2.6
H    -6.3    3.3  -10.2
H     9.4   -8.1   -1.7
I    -0.8  -11.3   -5.2
I     1.4   -4.6   11.5
P    -0.5   -9.7    7.9
I     3.9  -11.6    2.5
I     8.2   -7.9    5.2
C    -9.0   -8.3   -2.6
N    -9.8   -7.1   -3.0
I    -7.0   -8.0   -6.7
H     7.5    9.4    3.4
H    -3.4  -11.1   -4.8
H     8.2   -9.2   -2.4
P    -4.9    4.9   10.5
H    -5.0    9.7   -6.1
N    -4.4   11.0   -4.5
I   -11.3   -3.8    4.2
H     8.3    5.3    8.0
I   -12.1    3.5    1.5
H     0.6  -12.5    2.1
H     2.6  -11.2   -5.4
C     3.7   10.7   -5.7
I    10.0    6.6   -4.2
N     4.6   11.0   -4.5
H    11.5   -0.2   -5.4
N    -4.4  -11.0   -4.5
I     6.5   10.9   -1.1
H     0.7    2.0   12.6
