         400
 sphere cut out from bulk 
P    -0.0   -0.0    0.0
I     2.4    2.1    0.3
I    -2.1    2.3   -0.4
I    -2.4   -2.1   -0.4
I     2.0   -2.5    0.5
I    -0.6    0.0    3.2
I     0.7   -0.3   -3.2
H    -0.2    3.2    2.3
H     3.5    0.0    2.1
H    -2.8    0.5   -3.1
H     0.3   -3.5    2.3
H     3.1    0.5   -2.9
H    -0.0    3.5   -2.5
H     0.3   -4.0   -1.6
H    -3.7    0.7    2.5
H    -3.9   -1.1    2.0
H     4.2    0.9   -1.7
H     0.3   -2.9   -3.7
C     0.3    3.7    3.2
H    -3.8   -1.0   -3.0
N     4.0    0.9   -2.7
H     1.3    3.6    3.2
C    -4.3   -0.2    2.5
C    -3.7    0.0   -3.4
H    -4.7    0.9   -1.7
N    -0.1   -4.0    3.1
H    -1.1   -3.9    3.1
H    -1.2   -4.3   -2.5
C    -0.2   -4.5   -2.5
H    -0.2    3.2    4.1
C     4.5   -0.2    2.5
C    -0.2    4.6   -2.5
H     0.3   -3.5    4.0
H     0.3    5.1   -1.6
N     0.4   -3.9   -3.7
H     4.1    1.9   -3.1
H     5.0   -1.1    2.0
H    -1.3    4.8   -2.5
N    -4.8    0.9   -2.7
H     3.7   -1.3    4.1
H    -5.3    0.0    2.1
H     1.5   -4.1   -3.7
H    -3.6   -0.8    4.4
H     5.2    0.7    2.5
H    -3.9    0.0   -4.4
N     4.3   -0.5    4.0
H     5.0   -1.0   -3.0
H    -4.8    1.9   -3.1
H     3.9    0.3    4.5
N    -0.1    5.1    3.1
N    -4.5   -0.5    4.0
H     0.3    5.6    2.3
H     0.0   -5.6   -2.5
C     5.1    0.0   -3.4
H    -1.1    5.2    3.1
C     0.3   -5.4    3.2
H     0.0   -4.3   -4.6
H    -0.1   -5.9    2.3
P    -4.4   -4.5    0.1
P     4.4    4.6    0.1
P     4.4   -4.5    0.1
P    -4.4    4.6    0.1
P     0.0    0.0    6.4
P     0.2    0.1   -6.4
N     0.4    5.2   -3.7
H     1.4    5.0   -3.7
H    -5.7    0.5   -2.9
H     1.4   -5.5    3.2
H    -0.0    4.8   -4.6
I    -3.7   -4.5    3.2
I    -1.5    2.7   -5.8
H     4.9    0.0   -4.4
H    -4.9    0.3    4.5
I     2.0   -2.6    5.8
I     3.9    4.4   -3.2
H    -5.2   -1.3    4.1
I    -3.7    4.6    3.2
I    -2.2   -1.9   -6.1
I     2.6    1.8    6.0
I     6.5   -2.1   -0.4
I    -6.5    2.1    0.3
H     6.1    0.5   -3.1
I     1.9    6.6    0.5
H     0.3    5.6    4.0
I     3.9   -4.6   -3.2
H     5.2   -0.8    4.4
I    -2.1   -6.8   -0.4
I     6.7    2.3   -0.4
H    -0.1   -5.9    4.1
H     0.3    6.2   -3.7
I    -6.8   -2.5    0.5
I    -2.4    7.0   -0.4
I    -2.5   -2.0    6.7
I    -5.0    4.4   -3.2
I     2.4   -7.0    0.3
I    -4.9   -4.6   -3.2
I     5.1   -4.5    3.2
I     5.1    4.6    3.2
I    -1.8    2.6    6.9
I     2.9    1.9   -6.8
I     2.2   -2.5   -6.9
I    -8.1   -0.3   -3.2
I    -1.5   -6.3   -5.8
I    -6.2    1.8    6.0
P     8.8   -0.0    0.0
P    -4.1   -4.5   -6.4
P    -8.9   -0.0    0.0
H     4.1   -7.2   -3.1
P    -4.1    4.5   -6.4
I     8.3    0.0    3.2
I     1.9    6.4    5.8
P    -4.3    4.4    6.3
H    -7.5    3.6    3.2
P     4.5    4.4    6.3
P    -4.3   -4.6    6.3
H    -3.4   -0.7   -8.3
P    -0.1    9.0    0.0
P     4.5   -4.6    6.3
H     7.6   -4.3   -2.5
P     0.0   -9.1    0.0
P     4.7    4.5   -6.4
H    -3.9    8.0    2.0
P     4.7   -4.5   -6.4
I     6.6   -1.9   -6.1
H    -4.7   -7.2   -3.1
H     7.7   -3.9    3.1
H     4.1    0.4   -8.2
H    -7.4   -4.1   -3.7
I    -6.0    1.9   -6.8
H    -4.1   -0.1    8.3
H    -0.2   -4.4    8.2
H     0.0    3.3   -8.7
H     7.6    4.8   -2.5
H     4.2   -8.1   -1.7
I    -6.9   -2.6    5.8
H    -0.3    4.6    8.2
I     0.7    8.8   -3.2
H     0.5   -3.4   -8.8
I     6.4   -2.0    6.7
H    -3.8    8.1   -3.0
I     6.4    7.0   -0.4
H    -8.5   -3.5    2.3
H    -4.7    0.4   -8.2
H     3.6    7.7    4.1
H    -3.6   -8.4    2.5
H     0.1   -3.0    9.0
H    -4.6   -8.1   -1.7
I    -6.4   -7.0    0.3
H     8.7    3.2    2.3
I    -6.9    6.6    0.5
I    -0.4    0.1   -9.5
H    -2.7   -8.6   -3.1
I     6.7   -6.8   -0.4
H     4.7   -0.1    8.3
H     3.9   -1.2   -8.6
N     4.1   -8.2   -2.7
H    -8.5   -4.0   -1.6
I     0.5   -0.4    9.5
H     3.1   -8.6   -2.9
I    -1.7   -6.5    6.9
I    -0.5   -9.0    3.2
H     4.9    8.0    2.0
I    -2.3    7.2   -6.1
I    -0.6    9.1    3.2
H    -7.4    5.0   -3.7
I     7.3    2.7   -5.8
H    -8.5   -2.9   -3.7
I     2.7   -7.2    6.0
N    -4.3   -0.4   -8.8
I     2.1    6.5   -6.9
H    -7.5   -5.5    3.2
H     7.7    5.2    3.1
H    -9.0    3.2    2.3
H     8.8    3.5   -2.5
H    -8.8    3.5   -2.5
C    -8.6    3.7    3.2
N    -4.8   -8.2   -2.7
N     0.2   -4.0    9.0
N     4.5   -0.4   -8.8
I     0.8   -9.3   -3.2
I    -9.4    0.0    3.2
I    -6.7   -2.5   -6.9
H     3.6   -9.0    2.1
H     5.4   -0.7   -8.3
H     5.0    8.1   -3.0
N    -8.4   -3.9   -3.7
H     3.5    9.1    2.1
H     1.2   -4.2    9.0
I    -2.5    7.1    6.7
H    -8.5   -3.5    4.0
H    -4.9   -1.2   -8.6
H    -3.6    8.3    4.4
H    -8.5    5.1   -1.6
C     8.7   -4.5   -2.5
H    -3.0    0.4    9.6
I     9.6   -0.3   -3.2
H     9.2   -3.5    2.3
H     8.7    3.2    4.1
C     8.6    4.6   -2.5
N     8.8   -4.0    3.1
H     9.2   -4.0   -1.6
H    -5.2    7.7    4.1
C    -3.9   -0.1    9.4
H     5.2   -8.4    2.5
C    -4.4    8.9    2.5
I     7.1    2.6    6.9
N    -8.9   -4.0    3.1
H     2.9    0.4    9.8
I     2.9   -7.1   -6.8
C     4.5    8.9    2.5
H     9.1   -2.9   -3.7
C     9.1    3.7    3.2
H     1.2    4.9    9.0
C     0.5    3.8   -9.6
C    -3.7   -9.0   -3.4
N     0.2    5.1    9.0
N     4.3    8.5    4.0
N     0.1   -3.9   -9.6
C    -9.0   -4.5   -2.5
H    -0.9   -3.7   -9.6
H     1.6    3.7   -9.6
H    -9.0    3.2    4.1
H     0.1   -5.7   -8.7
C    -3.8    9.1   -3.4
C    -9.0    4.6   -2.5
H    -2.8    9.6   -3.1
H    -8.5    5.6    2.3
N    -4.5    8.5    4.0
H     3.0    9.6   -2.9
H     0.5    5.7   -8.8
C    -4.3   -9.3    2.5
H     3.8    1.7    9.7
H     9.1    5.1   -1.6
N    -8.4    5.2   -3.7
H     9.2   -3.5    4.0
C     4.9   -0.1    9.4
N     8.7    5.1    3.1
C    -8.5   -5.4    3.2
H    -4.0   -1.1    9.8
C     4.5   -9.3    2.5
H     4.0   -8.8    4.5
H    -5.3   -9.0    2.1
P    -8.6    0.1   -6.4
H    -5.7   -8.6   -2.9
H    -3.7    9.7    2.5
H     5.2    8.3    4.4
H    -8.8   -5.6   -2.5
N     9.3   -3.9   -3.7
N     3.8    0.8   10.0
H     8.9   -5.6   -2.5
H     8.7   -5.9    2.3
H    -5.3    9.1    2.1
N    -8.9    5.1    3.1
H    -3.9   -9.0   -4.4
H    -0.2    3.4   10.2
H    -8.8   -4.3   -4.6
H     8.8   -4.3   -4.6
H    -3.4    0.8  -10.3
P    -8.8    0.0    6.4
H     0.1    6.1    9.0
H    -3.9    9.1   -4.4
P     8.9    0.0    6.4
C     5.1   -9.0   -3.4
N     0.1    5.2   -9.6
H    -9.0   -5.9    2.3
H     9.1    5.6    2.3
H     4.8   -1.1    9.8
H    -8.5    5.6    4.0
C     0.5   -5.3   -9.6
C     5.1    9.1   -3.4
H     4.1   10.0   -1.7
H     0.6   -3.4  -10.4
P     0.3   -8.9   -6.4
H     0.1    3.3  -10.5
H     6.1   -8.6   -3.1
C    -4.1   -0.1  -10.2
H     8.8    4.8   -4.6
H    -5.0    1.7    9.7
H    -0.9    5.3   -9.6
H    -3.8  -10.1    2.0
H    -4.9   -8.8    4.5
I    -3.5   -4.3   -9.5
H    -8.9    4.8   -4.6
I     3.7    4.3    9.5
C     9.1   -5.4    3.2
H     3.9    9.3    4.5
N     4.0   10.0   -2.7
P     0.1   -9.1    6.4
I    -6.9    6.4    5.8
P     9.1    0.1   -6.4
H     1.6   -5.4   -9.6
P    -0.0    9.1    6.4
H    -9.9   -3.9    3.1
I    10.8   -2.5    0.5
H    -3.8  -10.0   -3.0
C    -0.4    4.5   10.2
H    -4.7   10.0   -1.7
P     0.2    9.2   -6.4
H    -8.6    6.2   -3.7
I   -11.0    2.3   -0.4
H   -10.1   -4.3   -2.5
I    -3.5    4.7   -9.5
N    -5.0    0.8   10.0
N     9.2    5.2   -3.7
I    -6.2   -7.2    6.0
H     5.0   -9.0   -4.4
C    -0.4   -4.6   10.2
H    -1.4   -4.4   10.2
C     4.7   -0.1  -10.2
H     8.7   -5.9    4.1
H    10.2    3.6    3.2
I     3.7   -4.8    9.5
H     3.7    0.1  -10.6
H     4.9    9.1   -4.4
H     5.9    0.4    9.6
H     5.1    9.7    2.5
N     4.4   -9.6    4.0
I     7.3   -6.3   -5.8
N    -4.5   -9.6    4.0
H    -3.7   -0.9  -10.7
H    -1.5    4.7   10.2
I    11.2    2.1    0.3
I     2.3   11.1    0.3
N    -4.8   10.0   -2.7
H    -3.6   -9.9    4.4
H     9.1    5.6    4.0
I   -11.2   -2.1   -0.4
I    -2.3  -11.2   -0.4
H   -10.1    4.8   -2.5
H    -9.0   -5.9    4.1
I     6.6    7.2   -6.1
H     5.0  -10.1    2.0
H    -4.9    9.3    4.5
I    -5.9   -7.1   -6.8
H    -6.0    0.4    9.8
H    -5.8    9.6   -2.9
I     6.3    7.1    6.7
I    -2.2   11.4   -0.4
H     5.4    0.8  -10.3
H     5.1  -10.0   -3.0
H     9.1    6.2   -3.7
I    -6.7    6.5   -6.9
I    -5.2    4.3    9.5
H   -10.0    5.2    3.1
H    10.3   -4.1   -3.7
H    -0.2   -5.7   10.2
H     6.0    9.6   -3.1
H     4.0    0.8   11.0
I     5.4   -4.3   -9.5
H    -5.1    0.1  -10.6
I     2.0  -11.6    0.5
H     3.7  -10.4    4.1
I    -5.1   -4.8    9.5
I     7.1   -6.5    6.9
H     0.1   -4.1   11.1
H     0.5    5.7  -10.4
I     5.3    4.7   -9.5
H     5.2   -0.9  -10.7
H     0.1   -5.8  -10.5
H    10.3    5.0   -3.7
H   -11.6    0.5   -3.1
H    10.2   -5.5    3.2
H     5.3   -9.9    4.4
H     4.0   10.9   -3.1
H    -4.9    0.8   11.0
H     0.1    4.9   11.1
I   -10.4    2.7   -5.8
H    11.9    0.5   -2.9
H     3.9    7.8   -8.6
H    -3.4    8.4   -8.3
H    -5.1  -10.4    4.1
H    -4.8   10.9   -3.1
I    -8.1    8.8   -3.2
H    -0.2   12.3    2.3
H    -7.6   -4.2    9.0
H     0.3  -11.9   -3.7
H    -8.3   -3.4   -8.8
I    10.8   -2.6    5.8
H    12.4    0.0    2.1
H    -7.3    3.7   -9.6
P     8.8    9.0    0.0
I     2.2   -2.4  -12.2
I    10.8    6.6    0.5
I    -8.3   -0.4    9.5
H     8.6   -4.4    8.2
P    -8.9    9.0    0.0
P    -8.8   -9.1    0.0
H    -5.0    7.8   -8.6
H     4.2   -8.7   -8.2
I     8.2    9.1    3.2
I     8.3   -9.0    3.2
I     2.6   10.9    6.0
P     8.8   -9.1    0.0
P     0.2    0.1  -12.7
H     8.6    4.6    8.2
H     3.9   -7.3    9.7
I    -2.2  -11.0   -6.1
I     8.5    0.1   -9.5
I    -8.1   -9.3   -3.2
H   -12.5    0.7    2.5
