         400
 sphere cut out from bulk 
P    -0.0    0.0    0.8
I     1.3   -2.0   -1.3
I    -2.5   -0.0   -1.3
I     1.2    2.2   -1.3
P    -0.0   -0.0   -3.4
I     2.4    0.0    2.9
I    -1.1   -2.2    2.9
I    -1.3    2.1    2.9
H     3.7    2.5   -0.7
H    -4.1    1.9   -0.7
H     0.7   -4.6   -0.0
H     3.7   -2.5   -1.9
H    -4.1   -1.9   -1.9
H     4.4    1.6    1.5
H     0.2    4.4   -2.1
H    -3.7    2.9    1.5
H    -0.3   -4.5    2.2
P     0.1   -0.1    5.0
H    -1.0   -5.1   -0.0
H     3.9    3.3    1.5
N     4.6    2.7   -0.3
C     0.0   -5.4    0.3
H    -5.0    1.6    1.5
N    -4.7    2.7   -0.3
C     4.6    2.6    1.2
C    -4.7    2.6    1.2
H     5.2    1.9   -0.7
N    -0.0   -5.4    1.8
H    -4.4    3.6   -0.7
N     4.7   -2.7   -2.3
N    -4.7   -2.7   -2.3
N    -0.1    5.3   -2.5
H     5.3   -1.9   -1.9
I    -1.2    2.1   -5.5
I     2.4    0.0   -5.5
H    -1.1    5.5   -2.1
H    -4.4   -3.6   -2.0
H    -1.2    4.3    4.1
H     1.0   -5.5    2.2
I    -1.2   -2.1   -5.5
H     5.0    3.6   -0.7
H    -5.7    2.5   -0.7
H    -3.7   -2.9    4.1
H     4.4   -1.6   -4.1
H    -3.7   -3.0   -4.2
H     4.5   -1.6    4.2
H     0.3   -6.4   -0.0
H     0.5    6.1   -2.1
H     5.0   -3.6   -2.0
H    -5.7   -2.5   -1.9
H    -0.9    4.7   -4.4
H     5.6    2.9    1.5
H    -0.6   -6.1    2.2
C     4.6   -2.7   -3.8
H     3.9   -3.3   -4.1
H    -5.5    3.3    1.5
H     3.9   -3.3    4.1
C    -4.7   -2.7   -3.8
H    -4.9   -1.6   -4.1
H    -4.9   -1.6    4.2
C    -0.1    5.4   -4.0
H     0.9    5.1   -4.3
H     1.0    5.2    4.3
I    -3.4    5.9   -1.3
N    -1.1    5.2    4.6
I     6.9   -0.0   -1.3
C    -4.7   -2.6    4.5
C     4.7   -2.6    4.5
I    -3.6   -5.9   -1.3
H    -1.3    6.0    3.9
C     0.3    5.3    5.1
H     0.5    4.5    5.9
I     3.3   -6.0    2.9
I     3.5    5.9    2.9
I    -2.4   -0.2    7.1
I    -6.9    0.0    2.9
I     1.2    2.0    7.2
I     1.4   -2.1    7.1
P     0.1    0.1   -7.6
H    -5.4   -3.3    4.1
H     5.6   -3.0   -4.2
H     5.7   -2.9    4.1
H    -5.5   -3.3   -4.1
H    -1.8    5.2    5.4
H    -0.3    6.4   -4.3
H    -4.0   -2.0    6.4
H     3.7   -2.5    6.4
H    -1.0   -4.3   -6.7
N    -4.6   -2.7    6.0
N     4.7   -2.7    6.0
H     4.3    1.8   -6.7
I     2.2    7.8   -1.3
H    -3.6    2.7   -6.9
I     5.8   -5.9   -1.3
I    -8.0   -2.0   -1.3
H     0.4    6.3    5.6
I     5.9    5.9   -1.3
H    -4.3   -3.6    6.3
H     5.3   -2.0    6.4
H    -5.0    1.8   -6.7
I    -8.2    2.2   -1.3
I     2.2   -8.2   -1.3
H     1.2   -5.1   -7.0
I    -2.2   -8.0    2.9
I     3.5   -5.9   -5.5
I    -5.9    5.9    2.9
I    -6.9    0.0   -5.5
I     3.4    5.9   -5.6
I     8.1    2.1    2.9
H    -5.6   -2.5    6.4
H     5.0   -3.6    6.3
I    -2.3    8.1    2.9
N    -0.9   -5.1   -7.2
I    -6.0   -6.0    2.9
H    -1.1   -5.9   -6.6
C    -4.4    2.3   -7.4
I     8.2   -2.2    2.9
H     3.8    4.1   -7.2
C     4.9    2.3   -7.4
P     0.0   -0.1    9.2
P     4.6    8.0    0.8
P     4.6   -8.1    0.8
P    -4.8    8.0    0.8
H    -4.2    1.6   -8.2
H     3.2    2.9    8.3
P    -4.7   -8.1    0.8
P     9.3    0.0    0.8
P    -9.3    0.0    0.8
C     0.5   -5.2   -7.8
H     5.8    2.7   -6.9
H     0.6   -4.6    8.3
H     3.3    3.1   -8.5
N     4.1    3.4   -8.0
H     0.6   -4.5   -8.5
H    -1.6   -5.2   -8.0
H    -4.2    1.5    8.6
H     0.2    9.7   -0.0
H    -8.6   -4.6   -0.0
H     8.3   -5.1   -0.0
I    -3.6    5.9    7.0
P     4.6    8.0   -3.4
H     5.2    1.6   -8.2
I    -3.5   -5.9    7.1
P     4.7   -8.0   -3.4
P    -4.7   -8.0   -3.4
I    -2.3   -7.9   -5.5
P    -4.8    8.0   -3.4
P     9.3   -0.0   -3.4
P    -9.3   -0.0   -3.4
I     7.0   -0.2    7.1
I     1.2    2.2   -9.7
I    -2.3   -0.1   -9.7
I    -5.9   -5.9   -5.5
H    -5.6    4.1   -7.2
I     1.4   -2.0   -9.7
I     8.1    2.1   -5.5
I    -5.9    5.9   -5.6
I     8.1   -2.1   -5.5
H     8.2    4.3    4.1
I    -2.3    8.1   -5.5
H     4.6    3.8    8.1
H     5.2    1.5    8.6
H    -4.7    3.8    8.1
N    -5.2    3.4   -8.0
H     8.3    5.5   -2.1
H    -0.7    9.9    2.2
H     0.6  -10.0   -2.1
N     4.1    3.3    8.8
H    -8.4   -5.5    2.2
H     9.0   -4.5    2.2
H     0.6   -6.2   -8.2
H    -9.1    4.4   -2.1
H    -1.7   -5.3    8.8
P     4.6   -8.0    5.0
P     4.5    8.1    5.0
H    -0.2   -9.6   -4.3
C     0.4   -5.4    9.0
P    -4.8   -8.0    5.0
P    -9.3   -0.1    5.0
H     4.7    4.0   -8.7
C    -4.5    2.2    9.4
H    -4.7    4.0   -8.7
P    -4.8    8.1    5.0
H     7.6    5.2    5.4
H     8.5    4.7   -4.4
P     9.4   -0.1    5.0
C    -0.1   10.7    0.3
I    -7.2    7.8   -1.3
H    -6.1    2.9    8.3
H     0.5   -6.4    8.6
H    -8.3    5.2    4.3
N    -5.3    3.3    8.8
H     9.6    4.4   -2.1
H    -8.4    5.1   -4.3
H     8.1    6.0    3.9
N     8.3    5.2    4.6
C    -9.3   -5.4    0.3
C     9.3   -5.4    0.3
H     0.9   10.5    2.2
I    -3.4  -10.2   -1.3
H    -1.0  -10.5   -2.1
C     4.9    2.2    9.4
H    -3.6    2.6    9.9
I    10.5    2.2   -1.3
I     5.8    5.9    7.0
N    -0.1   10.7    1.8
I    -3.7   10.1   -1.3
I    -8.0   -2.1    7.1
I     2.2    8.0    7.1
H     8.7   -6.1    2.2
H    -9.7   -4.5    2.2
H    -8.8    6.1   -2.1
H    -6.1    3.1   -8.5
H    -1.2  -10.1    3.9
I    10.6   -2.0   -1.3
N     9.3   -5.4    1.8
N    -9.3   -5.4    1.8
I     5.8   -5.9    7.1
I    -7.1   -8.2   -1.3
I     2.2   -8.1    7.1
N     9.2    5.3   -2.5
H    -1.1   10.9   -0.0
I     3.3   10.1    2.9
H     3.7    3.9    9.6
N    -1.0   -5.3    9.6
N    -0.0  -10.7   -2.5
I    -8.1    2.0    7.2
I     7.1   -8.0    2.9
H    -9.1   -6.4   -0.0
H    10.1   -4.6   -0.0
I   -10.5   -2.2    2.9
H    -1.1   -4.4   10.1
I     7.0    8.1    2.9
H     4.3    1.6   10.1
N    -9.4    5.3   -2.5
I     3.6  -10.2    2.9
I   -10.6    2.1    2.9
H     1.1   -5.3    9.9
H    -4.0   -1.8  -10.4
H     0.5   -9.8    5.6
H     3.8   -2.4  -10.4
C    -0.0  -10.6   -4.0
C     9.3    5.4   -4.0
H     0.6   11.4   -0.0
H    -5.1    1.6   10.1
H     8.3   -4.3   -6.7
H    -8.9    4.5    5.9
H     9.6   -6.4   -0.0
H   -10.3   -5.1   -0.0
C    -9.4    5.4   -4.0
I    -1.2    1.9   11.3
I    -1.2   -2.3   11.3
I     2.4   -0.1   11.3
C    -9.0    5.3    5.1
I     5.7   10.1   -1.3
H     5.8    2.6    9.9
H     1.1  -10.9    4.3
H    -5.6    3.9    9.6
I    -3.5   -5.7   -9.7
H     9.9    6.1   -2.1
P     0.1    0.1  -11.8
H    -0.4   11.6    2.2
H    -4.3   -3.5  -10.5
H     1.0  -11.0   -4.3
H     0.3  -11.6   -2.1
N    -1.0  -10.9    4.6
H     5.4   -1.8  -10.4
I     6.0  -10.2   -1.3
I   -11.8   -0.0   -1.3
H    -8.2   -5.1   -7.0
H     0.5    4.6  -10.9
H    10.3   -5.5    2.2
H   -10.0   -6.1    2.2
H     9.1    6.4   -4.3
C     0.4  -10.8    5.1
P     4.6   -7.9   -7.6
H   -10.4    5.5   -2.1
H    -1.1   -6.1   10.2
I     7.0   -0.1   -9.7
P    -4.7   -7.9   -7.6
P    -9.3    0.1   -7.6
I     7.1   -7.9   -5.5
I     3.4   10.1   -5.5
P     4.6    8.1   -7.6
N    -4.6   -2.5  -10.8
I    -3.5    6.0   -9.8
I    -5.8  -10.2    2.9
H   -10.5    4.3    4.1
I   -10.5    2.1   -5.5
H    -5.6   -2.4  -10.4
N     4.7   -2.5  -10.8
H   -10.2    4.7   -4.4
I     7.0    8.1   -5.5
P     9.4    0.1   -7.6
I   -10.6   -2.1   -5.5
H     8.2   -5.9   -6.6
I     3.5  -10.1   -5.6
I    11.8    0.0    2.9
I    -6.1   10.1    2.9
P    -4.8    8.1   -7.6
H    -1.2   10.1   -6.6
H     5.1   -3.5  -10.5
H    -0.8  -11.3   -4.4
C     9.7    5.3    5.1
H    -1.7  -10.9    5.4
H    10.2    5.1   -4.3
N     8.4   -5.1   -7.2
H     7.7   -5.2   -8.0
H    -8.9    6.3    5.6
H     9.8    4.5    5.9
H    -9.6    6.4   -4.3
H    10.4    5.2    4.3
N   -10.4    5.2    4.6
H    -1.1  -11.8    4.1
I     5.9   -5.7   -9.7
I    -7.9   -2.0   -9.7
I     2.3   -7.9   -9.7
H    -1.7    5.4  -11.4
H   -10.6    6.0    3.9
I    -8.1    2.2   -9.7
H     0.5    9.8   -8.2
I    -3.5  -10.2    7.0
I    -7.2    8.0    7.1
H     7.7   -5.3    8.8
I    -7.1   -8.1    7.1
H     9.8    6.3    5.6
I     2.2    8.1   -9.7
C     0.3    5.4  -11.7
I     5.8    6.0   -9.8
H     0.4    6.4  -11.2
I    10.5    2.0    7.2
I    -3.6   10.2    7.1
C    -8.9   -5.2   -7.8
H    -8.8   -4.6    8.3
H     0.5    9.7    8.6
P     4.5    7.9    9.2
I    -5.8  -10.1   -5.6
I    -6.0   10.1   -5.5
H     0.5  -11.6    5.9
I    11.8    0.0   -5.5
H    -8.8   -4.5   -8.5
H     1.1   10.9   -7.0
I    10.7   -2.1    7.1
I     3.4    5.7   11.2
P    -4.8    7.9    9.2
H   -10.4   -4.3   -6.7
P     4.6   -8.1    9.2
P    -9.3   -0.1    9.2
N    -1.0   10.9   -7.2
P    -4.7   -8.1    9.2
P     9.4   -0.1    9.2
H    -4.3  -12.5   -0.7
H    13.0    2.5   -0.7
I    -6.9   -0.1   11.3
I     3.4   -6.1   11.3
H    -0.9    4.6   12.5
H    -9.1    9.7   -0.0
C     0.4   10.8   -7.8
H     8.6    9.9    2.2
H    -4.4   12.4   -2.0
N    -1.0    5.3  -12.2
C    -4.6   -2.5  -12.3
H   -11.1    5.2    5.4
P    -0.0   -0.2   13.4
C     4.7   -2.5  -12.3
H    13.0   -2.5   -1.9
H     3.9  -12.7    1.5
H    -8.7  -10.0   -2.1
H     0.9    4.9   12.5
H     4.5   -1.4  -12.6
H    -3.6   -2.8  -12.7
H     5.0  -12.5   -0.7
H   -13.1    2.9    1.5
H     4.9   12.4   -2.0
H    -1.1    4.4  -12.7
H     4.4   -1.8   12.7
H    -8.8   -6.2   -8.2
H    -3.8   -3.1   12.6
H     8.2  -10.1    3.9
C     9.8   -5.2   -7.8
N   -10.3   -5.1   -7.2
H    -4.9   -1.4  -12.6
H    10.5   -5.1   -7.0
H   -13.4    1.9   -0.7
H     9.6    9.7   -0.0
H    -1.7   10.9   -8.0
H    -1.1   11.8   -6.7
H     8.4  -10.5   -2.1
H     1.1    5.3  -12.5
H     4.0   -3.2  -12.7
H   -13.4   -1.9   -1.9
I     5.9  -10.2    7.0
I     5.8   10.2    7.1
H    -8.5   10.5    2.2
H     3.8   -3.5   12.7
H     8.3   10.9   -0.0
H    13.2    3.3    1.5
I   -11.7   -0.2    7.1
H     9.9   -4.6    8.3
H   -10.5   -5.9   -6.6
