         400
 sphere cut out from bulk 
P    -0.4    0.1   -1.3
I     2.2    0.1    0.8
I    -1.4   -2.0    0.8
I    -1.5    2.2    0.8
P    -0.3    0.0    3.0
H     3.3   -2.0   -0.2
I     1.0   -2.1   -3.3
I     0.9    2.2   -3.3
H     2.8   -2.7   -1.6
H    -0.4    4.3   -0.3
I    -2.7    0.1   -3.4
H     0.6    4.1   -1.7
N     3.5   -2.7   -0.9
H     3.8    2.0    1.5
H    -3.8   -2.8   -0.7
N     0.2    4.8   -0.9
H    -4.0    2.6    1.5
H     3.4   -3.6   -0.3
H    -4.4   -1.7   -2.0
H    -1.0   -4.7    2.1
H     1.0    5.1   -0.4
P    -0.2    0.1   -5.4
C    -4.5   -2.7   -1.5
H     0.7   -5.0    2.1
N     4.4    2.7    1.9
I     0.9   -2.2    5.0
H     4.9   -1.7   -2.0
I     0.9    2.1    5.1
H     4.1    3.7    1.6
C     4.9   -2.7   -1.5
I    -2.7    0.0    5.1
H     3.4    2.9    3.7
C    -0.2   -5.4    2.4
N    -4.9    2.7    1.9
H     0.2   -4.3   -4.1
H    -1.4    5.5   -2.1
H    -4.4   -3.5   -2.2
H    -5.6    2.0    1.5
H     4.6    1.6    3.6
C    -0.5    5.9   -1.6
C     4.4    2.6    3.4
H     5.4    2.6    1.5
H     0.1   -4.4    4.3
H    -4.8    1.6    3.6
H     5.6   -2.8   -0.7
H    -6.1   -2.0   -0.2
H     5.0   -3.5   -2.2
H    -4.2    3.3    3.8
H     3.5    3.0   -4.7
C    -5.0    2.6    3.4
N    -5.9   -2.7   -0.9
H    -5.3    3.7    1.6
N    -0.2   -5.4    3.9
H    -0.8    6.6   -0.9
I     3.1    5.9    0.8
H    -0.4   -6.4    2.1
H     0.1    6.3   -2.4
I     3.3   -5.9    0.8
H     4.7    1.7   -4.7
H    -4.7    1.7   -4.7
N    -0.1   -5.3   -4.5
H    -1.1   -5.4   -4.1
H    -6.0   -3.6   -0.3
H    -4.2    3.4   -4.6
H    -1.2   -5.5    4.3
P    -0.3   -0.1    7.1
H     5.2    3.3    3.8
C     4.5    2.7   -5.0
I    -7.2    0.1    0.8
H     0.5   -6.0   -4.1
H    -6.6   -2.7   -1.6
H     0.4   -6.1    4.3
I     6.7    0.1   -3.4
C    -4.9    2.7   -5.0
H    -6.0    2.9    3.7
I    -3.4   -5.9   -3.4
H     5.2    3.4   -4.6
H     3.3   -2.8    6.4
H     0.5    3.9    6.8
I     2.2    0.3   -7.5
I    -3.9    6.0   -3.4
H    -0.9   -4.6   -6.4
H    -4.6   -1.8    6.2
I    -1.4   -2.0   -7.6
C    -0.1   -5.3   -6.0
I    -1.5    2.3   -7.6
H     4.8   -1.8    6.2
H    -5.9    3.0   -4.7
H     0.9   -5.0   -6.3
I     7.8    2.2    0.8
H     3.9    2.1   -6.9
I     8.0   -2.0    0.8
H    -1.4    5.3    6.2
H    -3.9    2.6   -6.9
I     6.7    0.0    5.1
N     4.5    2.8   -6.5
I    -2.5   -8.0    0.8
C     4.2   -2.3    6.9
I    -6.1   -5.9    0.8
I    -2.6    8.0    0.8
H     0.1    6.2    6.0
N    -4.9    2.8   -6.5
I    -3.5   -5.9    5.1
I    -6.3    5.9    0.8
I    -4.0    5.9    5.0
I     2.1   -7.7   -3.4
I     5.5    6.0   -3.4
N     0.1    4.6    7.5
H     3.9   -1.7    7.7
H     4.1    3.7   -6.8
H    -4.0   -4.1    6.8
C    -0.6    5.7    6.7
H    -0.3   -6.3   -6.3
C    -5.2   -2.3    6.9
I     6.0   -5.9   -3.4
H    -5.5    2.1   -6.9
H    -0.5    4.1    8.1
P     9.0    0.1   -1.3
H     5.4    2.6   -6.9
I     2.0    8.3   -3.4
H    -6.1   -2.8    6.4
P     4.6   -8.0   -1.3
I    -8.4   -2.1   -3.3
P     4.4    8.1   -1.3
I    -8.4    2.2   -3.3
H    -3.6   -3.1    8.1
N    -4.4   -3.4    7.5
H    -5.2    3.7   -6.8
P    -4.8   -8.0   -1.3
I     5.4    5.9    5.0
H     0.9    5.0    8.0
I     2.1    0.1    9.3
H    -0.6   -9.4   -0.9
I     2.1   -7.8    5.0
P     9.1    0.0    3.0
H     5.4   -4.1    6.8
P    -5.0    8.1   -1.3
I    -1.5   -2.2    9.2
I    -1.6    2.0    9.2
P     4.3    8.1    2.9
P     4.5   -8.0    2.9
H    -5.5   -1.7    7.7
P    -0.2    0.1   -9.7
N     5.0   -3.4    7.5
H    -0.4    4.3   -8.7
I     1.9    8.2    5.0
P    -4.9   -8.0    2.9
I     5.8   -5.9    5.1
H    -8.3    5.1   -0.4
H    -3.4   -2.8   -8.7
H     8.4   -4.7    2.1
P    -9.7    0.1   -1.3
H    -8.8    4.1   -1.7
H     8.0    5.5   -2.1
H    -0.6    9.7    2.1
H    -0.9    6.5    7.5
H     9.0    4.3   -0.3
P    -5.0    8.1    2.9
H     4.0   -1.5   -9.1
H     0.3   -9.7   -2.4
I    -8.5    2.1    5.1
H     4.4   -4.0    8.2
I    -8.5   -2.2    5.0
P    -9.7    0.0    3.0
I     3.4   -5.8   -7.6
I     3.2    6.0   -7.6
H    -8.6   -5.0    2.1
H     1.1    5.2   -8.8
C    -0.3  -10.2   -1.6
H    -4.9   -4.0    8.2
N    -9.2    4.8   -0.9
H     5.8   -3.1    8.1
I    -7.2    0.3   -7.5
H     4.5   -3.8   -8.6
N     0.3    4.8   -9.3
I     6.7    8.0    0.8
H    -4.8   -3.8   -8.6
I     6.9   -8.0    0.8
P     9.1    0.1   -5.4
H    -5.4   -1.5   -9.1
H    -9.8    4.3   -0.3
I     3.1   10.2    0.8
P     4.6   -7.9   -5.5
I     3.3  -10.1    0.8
N    -4.3   -3.2   -9.3
H     3.7    1.8    9.9
P     4.4    8.1   -5.5
H     8.3   -5.4   -4.1
C     8.9    5.9   -1.6
N     9.6    4.8   -0.9
P    -4.8   -7.9   -5.5
H     8.2   -5.5    4.3
H     0.3   10.0    4.3
H     8.6    6.6   -0.9
H    -1.2  -10.6   -2.1
H     0.3   10.1   -4.1
H     9.9    4.1   -1.7
H     0.6    4.1  -10.0
C     9.1   -5.4    2.4
H     5.9   -2.8   -8.7
C    -0.4   10.7    2.4
C     4.3   -2.1   -9.9
P    -5.0    8.1   -5.5
H    -9.2   -4.3   -4.1
H     1.2  -10.9   -0.4
H    -4.0    2.4    9.9
I   -10.8   -2.0    0.8
I    10.3    2.2   -3.3
I    10.3   -2.1   -3.3
P    -9.6    0.1   -5.4
N     5.1   -3.2   -9.3
I    -7.2   -7.7   -3.4
I     7.9    2.3   -7.6
H    -9.3   -4.4    4.3
I   -10.9    2.2    0.8
I     8.0   -2.0   -7.6
H     8.9   -6.4    2.1
H     0.6   11.0    2.1
H     3.4   -2.6  -10.4
I     3.0    5.7    9.2
I    -2.4   -8.0   -7.6
I    -6.0   -5.8   -7.6
I    -3.6   10.1   -3.4
H     9.6   -4.3   -4.1
I    -3.7  -10.1   -3.4
C    -9.6   -5.4    2.4
C    -5.1   -2.1   -9.9
H     9.5   -4.4    4.3
N     0.4  -11.3   -0.9
H     4.0    3.5   10.0
N     9.2   -5.4    3.9
P    -0.4   -0.1   11.4
H     7.9    5.3    6.2
I    -2.6    8.1   -7.6
N    -0.4   10.7    3.9
H    -3.9   -3.8  -10.0
H    -1.3   10.5    4.3
H    -1.3   10.6   -4.1
H    -9.2    6.3   -2.4
P     4.3    7.9    7.1
H    -8.9   -6.0   -4.1
N     4.4    2.6   10.3
H    -0.8    6.7   -9.3
I     3.3   -6.0    9.2
H    10.1   -5.0    2.1
I    -6.2    6.0   -7.6
P     9.0   -0.1    7.1
H    -5.6    1.8    9.9
H     5.3    2.4    9.9
H    -1.0   -4.8   10.4
N     9.2   -5.3   -4.5
I    11.5    0.1    0.8
H     0.3   -9.9    6.0
H     8.5   -4.6   -6.4
H   -10.4   -4.7    2.1
H    -0.5    9.7   -6.3
H    -4.5   -1.6  -10.6
I    10.2   -2.2    5.0
H    -1.2   11.4    2.1
C    -9.9    5.9   -1.6
H    10.4    5.1   -0.4
H    -8.9   -6.1    4.3
I    -7.4    8.3   -3.4
H     9.5    6.3   -2.4
N    -9.6   -5.4    3.9
C    -0.5    5.9  -10.1
N    -0.3   10.8   -4.5
I    10.3    2.1    5.1
P     4.5   -8.2    7.1
H    -8.5   -5.0   -6.3
H     0.8   -5.2   10.5
N    -5.0    2.6   10.3
N    -9.5   -5.3   -4.5
H     4.9   -1.6  -10.6
P    -5.1    7.9    7.1
H    -0.2  -11.8   -0.3
I    -7.3    0.1    9.3
H    -8.9    3.9    6.8
I    -7.3   -7.8    5.0
H    -5.3    3.5   10.0
I    -6.1  -10.1    0.8
P    -4.9   -8.2    7.1
H    -9.8   -6.4    2.1
I    -3.8  -10.1    5.0
I    -3.7   10.1    5.1
I     1.0    2.3  -11.7
I    -6.3   10.2    0.8
H    -1.3    5.5  -10.6
I     1.0   -1.9  -11.8
I    -2.6    0.2  -11.8
I     5.6  -10.1   -3.4
H     5.5   -3.8  -10.0
P    -9.7   -0.1    7.1
H     0.7  -12.0   -1.7
I     5.8   10.1   -3.4
C    -0.2   -5.5   10.8
I    -7.5    8.2    5.0
H   -10.2    6.6   -0.9
H    -0.7   -9.6    7.5
H    -5.9   -2.6  -10.4
I     7.7    2.0    9.2
C     9.3   -5.3   -6.0
H   -10.8    5.5   -2.1
H     9.9   -6.0   -4.1
C    -0.3   10.7   -6.0
I     7.9   -2.2    9.2
H     9.8   -6.1    4.3
C    -0.4  -10.3    6.7
H    -0.4   -6.5   10.5
H    -0.1   11.6    4.3
I    -2.7    7.9    9.2
C    -9.5   -5.3   -6.0
H    -0.0   11.7   -4.1
C     8.8    5.7    6.7
H   -10.5   -5.4   -4.1
I   -12.1    0.1   -3.4
H    -1.3  -10.8    6.2
H     0.2    6.4  -10.8
I    -6.3    5.7    9.2
H    12.1   -2.7   -1.6
I    -2.5   -8.2    9.2
I    -6.1   -6.0    9.2
I     5.6  -10.1    5.0
H     9.9    3.9    6.8
H    -8.4    5.0    8.0
H    -9.3    6.2    6.0
I     5.7   10.1    5.1
H   -10.6   -5.5    4.3
H     8.9    4.1    8.1
H     9.1   -6.3   -6.3
N    -9.2    4.6    7.5
H     0.7   11.1   -6.3
H     9.5    6.2    6.0
C     4.3    2.5   11.8
H     3.2   12.4   -0.3
H    12.7   -2.0   -0.2
H     8.7   -9.4   -0.9
H     3.4    2.8   12.1
H   -10.3   -4.6   -6.4
N     9.5    4.6    7.5
H     4.5    1.4   12.1
I     6.8    8.1   -7.6
H     8.5    6.5    7.5
I     7.0   -8.0   -7.6
H    10.3   -5.0   -6.3
C    -5.0    2.5   11.8
H    -4.8    1.4   12.1
I     3.3  -10.1   -7.6
H    -1.0   11.4   -6.4
I   -12.1    0.0    5.1
I     3.2   10.2   -7.6
H    -8.3    5.2   -8.8
H    -9.7   -6.3   -6.3
H     4.3  -12.4    1.6
N    12.9   -2.7   -0.9
H     0.2   -4.2  -12.5
H     8.8    9.7    2.1
H    -0.6   -9.4   -9.3
H     9.0    4.3   -8.7
H    12.8   -3.6   -0.3
H    -4.3    3.1   12.2
P     9.2    0.1   -9.7
C   -10.0    5.7    6.7
I   -10.8   -2.0   -7.6
P     4.6   -7.9   -9.7
P     4.4    8.1   -9.7
P    -4.8   -7.9   -9.7
H    13.2    2.0    1.5
H    -9.9    4.1    8.1
I    -3.4   -5.7  -11.7
H     0.1   -4.5   12.7
I   -10.9    2.3   -7.6
H   -13.2   -2.8   -0.7
N    -0.2   -5.5   12.3
H    -5.1  -12.4    1.6
H    -9.1   -9.7   -2.4
H     8.2  -10.6   -2.1
I     6.8    0.2  -11.8
H   -10.8    5.3    6.2
H    -4.6   12.6   -2.2
P    -5.0    8.1   -9.7
H     5.1    3.1   12.2
H    -1.1   -5.3  -12.5
P    -9.6    0.1   -9.7
H     4.8   12.6   -2.2
H    -8.2  -10.9   -0.4
H    12.8    2.9    3.7
N     0.3  -11.4    7.5
H     2.6   13.3   -1.6
H   -13.4    2.6    1.5
C     9.0  -10.2   -1.6
H     1.1  -11.1    8.0
I    -2.8   -0.2   13.4
I     0.8    2.0   13.5
N     3.3   13.3   -0.9
I     0.8   -2.3   13.5
H    -9.8    4.3   -8.7
H   -10.0   -9.4   -0.9
I    11.6    0.3   -7.5
H     0.5   -5.9  -12.5
