         400
 sphere cut out from bulk 
I     1.1   -0.1    1.4
I    -1.3    0.2   -2.1
P    -1.4   -2.1    0.2
P     1.2    2.1   -1.0
I    -1.3    3.6    0.4
I     1.1   -3.6   -1.1
I    -3.8   -0.2    1.3
H     1.1   -0.9    3.8
P     3.6   -2.1    0.3
I     3.6    0.1   -2.1
P    -3.8    2.1   -1.0
H     0.3    3.8    2.4
H    -1.1    0.1   -4.5
I    -1.4   -3.5    3.0
H     0.2   -2.1    4.5
N     1.0   -1.5    4.7
I     3.6    3.6    0.3
H     1.7    3.5    3.5
N     0.8    4.1    3.3
I     1.2    3.5   -3.8
I    -3.9   -3.6   -1.1
H     1.9   -2.1    4.6
H    -4.0   -0.0    3.8
H     0.2    3.8    4.1
N    -1.1   -0.1   -5.6
H    -0.3   -0.7   -5.7
I     3.5   -3.5    3.1
H     0.0   -0.1    5.9
H     3.7    0.9   -4.6
H    -0.3   -4.4   -3.9
H    -1.2   -5.2   -2.6
H    -3.2    0.8    5.0
C     0.9   -0.7    5.9
H    -1.9   -0.8   -5.8
I    -1.5    2.5    5.5
I     6.1   -0.2    1.3
H     3.1   -3.5   -4.2
H    -3.0    4.4    3.2
H     1.8   -0.1    6.0
N    -4.0    0.2    4.8
H    -2.1   -4.4   -4.0
C    -1.2   -5.0   -3.7
H    -0.2    1.7   -6.1
I    -3.8    3.6   -3.7
H     2.9    2.1   -5.4
H    -3.1   -1.6    5.5
H     1.7    5.8    2.5
C     1.1    5.5    3.3
P     6.1    2.1   -1.0
C    -1.1    1.1   -6.4
H     4.4   -3.8   -3.2
I    -6.3    0.1   -2.1
P    -6.3   -2.1    0.3
H    -2.0    1.6   -6.2
N     3.7    1.5   -5.4
H    -0.5    5.3   -4.2
I     1.4   -2.4   -6.1
H    -3.9    5.2    1.9
I     3.3    2.5    5.4
H     0.1    6.0    3.2
H     0.2   -6.1    3.2
N     3.9   -4.0   -4.1
H     0.9   -1.4    6.8
H    -3.0   -5.3    3.5
C    -3.9    5.0    3.0
H     5.9   -0.0    3.8
H    -4.9    0.7    5.0
C    -4.0   -1.1    5.7
H     1.8   -6.4    2.5
H    -2.1    5.3   -4.2
I     6.0   -3.6   -1.1
H     5.0    0.7    5.0
H     3.0   -5.7   -3.2
I    -6.3    3.6    0.3
H     4.5    2.1   -5.2
H    -4.8    4.4    3.2
H     2.9    0.1   -6.7
H     1.6    5.8    4.3
H    -5.5   -3.8   -3.2
H     5.0    4.4    3.2
N    -1.3    5.9   -4.4
C     1.2   -6.6    3.3
H    -4.9   -1.7    5.4
H    -1.3    6.9   -2.6
H     5.0   -1.7    5.4
I    -3.6   -2.5   -6.2
H    -1.1    0.8   -7.4
N     5.8    0.2    4.8
H     4.6   -3.8   -4.8
C     3.8    0.7   -6.7
H     2.9    6.4   -3.2
H    -6.2    0.9   -4.6
C     3.7   -5.5   -4.1
N    -1.2   -6.3   -4.4
H    -5.3    2.1   -5.2
H     1.7   -6.3    4.3
H    -4.7   -5.3    3.5
I    -6.3   -3.5    3.1
H    -4.0   -0.8    6.7
N    -3.9   -5.9    3.7
I     6.1    3.6   -3.7
H    -0.4   -6.9   -4.2
H    -5.3   -3.8   -4.8
H     4.7    0.1   -6.6
H    -3.8   -6.9    1.9
C    -1.3    7.1   -3.7
H     6.0    5.2    1.9
H     5.2   -5.3    3.5
H    -1.3    6.0   -5.5
C     5.9   -1.1    5.7
N    -5.9   -4.0   -4.1
H     3.2   -5.8   -5.0
N    -3.9    6.3    3.7
H    -1.2   -6.1   -5.5
H    -3.1    6.9    3.5
H    -2.0   -6.9   -4.2
C     5.9    5.0    3.0
N    -6.2    1.5   -5.4
H    -5.2    0.1   -6.6
H     6.7    0.8    5.0
C     3.6    6.6   -4.1
H     3.9    1.4   -7.5
H     4.5    6.1   -4.0
H     4.6   -6.0   -4.0
H    -3.9   -6.0    4.7
I    -1.2   -8.5    0.4
C    -3.9   -7.1    3.0
I     1.0    8.5   -1.1
H     3.1    6.4   -5.0
H    -0.4    7.7   -3.9
H    -4.0    6.1    4.7
H     0.4   -8.4    2.4
H    -6.8   -3.5   -4.2
H     6.8    4.4    3.2
P     8.5   -2.1    0.2
N     0.9   -8.1    3.3
I    -1.6   -2.4    8.3
I     8.6    0.2   -2.1
H     6.8   -1.6    5.5
I    -8.7   -0.1    1.4
I    -6.6    2.5    5.4
H    -3.0   -7.7    3.2
H     5.8   -0.8    6.7
H    -2.2    7.7   -4.0
H    -5.3   -6.0   -4.0
P    -8.7    2.1   -1.0
H    -5.3    6.1   -4.0
C    -6.1    0.7   -6.7
H    -4.8    6.9    3.5
H    -7.0    2.1   -5.4
I     6.3   -2.5   -6.2
N     6.0   -5.9    3.7
I    -1.4    8.6    3.0
P    -1.6    3.9    8.2
H     5.1    6.9    3.5
C    -6.2   -5.5   -4.1
I     3.4   -2.4    8.3
I     3.7   -8.5    0.3
I     0.9    5.9    7.2
H     0.3   -8.4    4.1
H     6.9   -5.3    3.5
I     8.6    3.6    0.4
H     6.0   -6.9    1.9
N     5.9    6.3    3.7
I     1.3    2.4   -9.0
I    -4.0    8.5   -1.1
H     1.8   -8.6    3.5
I     1.3   -8.6   -3.8
H    -8.0   -2.1    4.6
H    -6.9   -5.7   -3.2
I    -8.8   -3.6   -1.1
I     0.9   -6.3    7.2
H    -8.2    3.5    3.5
H    -4.8   -7.7    3.2
H    -8.8   -0.9    3.8
P     3.3    3.9    8.2
H    -7.0    0.1   -6.7
I     8.5   -3.5    3.0
H    -6.0    1.4   -7.5
H     6.0   -6.0    4.7
H     5.9    6.1    4.7
H     7.8   -4.4   -4.0
H     5.1   -7.7    3.2
I     3.5    8.6    3.1
C     6.0   -7.1    3.0
I     0.9    2.3    9.5
N     3.9    8.1   -4.1
H     8.7    0.1   -4.5
P     1.4   -3.9   -8.9
H     8.0   -0.8   -5.8
I    -1.1   -5.9   -7.9
H     4.3    8.4   -3.2
H    -6.9    6.4   -3.2
C    -6.3    6.6   -4.1
I    -3.6    2.5   -9.0
I    -3.7   -8.6   -3.7
H     3.0    8.6   -4.2
H    -8.1   -0.1    6.0
P    -1.4   10.0    0.2
I    -8.7    3.5   -3.8
H     7.8    1.6   -6.2
I    -4.1    5.9    7.2
N    -8.9   -1.5    4.7
I    -1.1    6.3   -7.9
P     1.3  -10.0   -1.0
H    -6.7   -5.8   -5.0
I     8.3    2.5    5.5
H     6.8    6.9    3.5
H     7.8    5.3   -4.2
H    -8.2    5.8    2.5
I    -4.0   -6.3    7.2
N     8.8   -0.1   -5.6
P    -3.6   -3.9   -9.0
P     0.9   -4.0    9.5
I     5.9    8.5   -1.1
H     8.6   -5.2   -2.6
N    -9.1    4.1    3.3
I    -1.1   -2.3  -10.2
I    -6.2   -8.5    0.3
H    -5.6    8.4   -3.2
I    -4.1    2.3    9.5
H    -9.5    3.8    2.4
H    -6.8    6.4   -5.0
I     3.9   -5.9   -7.9
H    -8.1   -6.4    2.5
P     3.5   10.0    0.3
C     8.7   -5.0   -3.7
H     4.5    8.4   -4.8
P    -3.7  -10.0   -1.0
I    -8.5   -2.4   -6.1
C    -9.0   -0.7    5.9
I     3.8    6.3   -7.9
I    -6.5   -2.4    8.3
H     6.9   -7.7    3.2
N    -6.0    8.1   -4.1
H    -9.7   -2.1    4.5
C     8.8    1.1   -6.4
C    -8.8    5.5    3.3
I     5.8    5.9    7.2
H     0.1   10.0    4.5
H    -8.3    5.8    4.3
H    -5.4    8.4   -4.8
P    -1.1    4.0  -10.2
P    -4.0   -4.0    9.5
I    11.0   -0.1    1.4
I     3.9   -2.3  -10.2
H    -1.6    0.6   11.0
H    10.2    3.8    2.4
H     1.8   10.0    4.6
I    -1.5   -9.6    5.5
I     5.9   -6.3    7.2
I    -6.4    8.6    3.1
H    -9.7    3.8    4.1
I     6.2   -8.6   -3.7
P    -6.6    3.9    8.2
H     9.6   -0.7   -5.7
H     7.8   -6.9   -4.2
H    -8.2   -6.3    4.3
H     9.6   -4.4   -3.9
H    10.1   -2.1    4.5
I     6.3    2.5   -9.0
P    11.1    2.1   -1.0
N     8.6    5.9   -4.4
H     8.6    6.9   -2.6
I     5.8    2.3    9.5
H    -9.0   -1.4    6.8
I   -11.2    0.2   -2.1
C    -8.7   -6.6    3.3
P   -11.2   -2.1    0.2
H    -9.9   -0.1    5.9
H    10.1    3.8    4.1
H     9.9   -0.1    5.9
I    -6.0   -5.9   -7.9
H     8.8    0.8   -7.4
I     1.3    9.7   -6.1
H     9.6    1.7   -6.1
H     3.4    1.3   11.0
N     8.7   -6.3   -4.4
H     9.4    5.3   -4.2
I     3.4   -9.7    5.4
H     7.7    7.7   -4.0
I    11.0   -3.6   -1.1
P     6.3   -3.9   -9.0
H    10.9   -0.9    3.8
N     0.9   10.6    4.7
P     3.8    4.0  -10.3
H   -10.2   -0.7   -5.7
H     3.0  -10.0   -5.4
I   -11.1    3.6    0.4
P    -1.5   -8.2    8.2
C     8.6    7.1   -3.7
I    -6.1    6.3   -7.9
P     6.2  -10.0   -1.0
H   -10.2   -4.4   -3.9
H    -6.9    8.6   -4.2
H     8.6    6.0   -5.5
H     1.3   -1.3  -11.7
P     5.8   -4.0    9.5
H    -9.7   -6.1    3.2
P    -6.4   10.0    0.3
H     1.0   11.2    3.8
N    10.7    4.1    3.3
H   -11.0    0.1   -4.5
H    -9.8    6.0    3.2
H     8.7   -6.1   -5.5
N    10.9   -1.5    4.7
H   -10.1    1.7   -6.1
H     2.4   -0.1   11.7
I     8.3   -2.4    8.3
I    -3.7    9.6   -6.2
I    -6.0   -2.3  -10.2
P     3.4   -8.2    8.2
H    -0.2  -10.4   -6.1
I     1.1   12.0    1.4
H    10.0    6.0    3.2
I     8.7   -8.5    0.4
I   -11.2   -3.5    3.0
H     4.6  -10.0   -5.2
I    -1.2  -12.0   -2.1
H    10.1   -6.1    3.2
C    -1.6    0.9   12.1
I    11.1    3.5   -3.8
P     1.3    8.2   -8.9
H    -3.2   10.5    5.5
I    -1.5   -6.0   10.6
C     3.3    0.6   11.8
H    -3.6   -0.6  -11.8
I    -8.8    8.5   -1.1
P     8.3    3.9    8.2
N   -11.0   -0.1   -5.6
H    -2.0  -10.5   -6.2
C    10.8   -0.7    5.9
H   -10.3    5.3   -4.2
I    -1.6    6.1   10.6
H    -8.1   -8.6    3.5
I     1.2  -12.3    1.4
I     8.4    8.6    3.0
H    -0.7    1.5   12.3
H     9.5   -6.9   -4.2
H    -5.3  -10.0   -5.2
N     3.8  -10.6   -5.4
N    -9.0   -8.1    3.3
H   -11.1   -5.2   -2.6
I    -1.4   12.3   -2.1
P     0.9    8.1    9.5
H    11.6    3.5    3.5
P    -6.1    4.0  -10.3
H     4.2   -0.0   11.9
H     0.5    0.1  -12.6
I     3.4   -6.0   10.6
I    -8.5    2.4   -9.0
C     1.4   -0.6  -12.5
I     1.0   -2.6   12.3
H    -2.5    1.5   12.3
I    -3.9   12.0    1.3
H     3.7  -11.2   -4.6
I     3.3    6.1   10.6
H     2.3    0.1  -12.5
P    -3.6    8.2   -9.0
C   -11.1   -5.0   -3.7
C    11.0    5.5    3.3
I     3.7  -12.0   -2.1
H     0.8   10.7    6.8
I    -8.6   -8.6   -3.8
H     4.9   10.5    5.4
H    -0.4   11.4   -5.7
C   -11.0    1.1   -6.4
H    10.7   -1.4    6.8
H    -5.0   10.5    5.4
H    -0.7   -0.9   12.7
H    11.7   -2.1    4.6
C    -1.0  -11.0   -6.4
H    -6.5    1.3   11.0
H    -3.1  -11.4    5.0
H     9.5    7.7   -3.9
I    -6.5   -9.7    5.4
I    -1.6    9.7    8.3
H    -9.5   -8.4    2.4
I     1.3    6.0  -11.3
C     0.8   11.4    5.9
P    -8.5   -3.9   -8.9
H    -2.0   11.4   -5.8
I   -11.4    2.5    5.5
I    -3.7  -12.3    1.3
I     1.4   -6.1  -11.3
I     3.5   12.3   -2.1
I    -9.0    5.9    7.2
H    -1.1  -12.1   -4.5
H    -2.4   -0.9   12.7
N    -1.6   -0.3   12.9
I     6.2    9.6   -6.2
H   -10.3   -6.9   -4.2
H    -1.2   12.2   -4.5
I    -8.9   -6.3    7.2
P     8.4   10.0    0.2
C    -4.1   11.1    5.7
I    11.3   -2.4   -6.1
P    -1.0   -8.1  -10.2
H    -5.6   -0.0   11.9
H    11.7   -0.1    6.0
