         400
 sphere cut out from bulk 
P     0.5    1.3   -0.4
I    -1.5   -0.7   -1.8
I     1.4   -1.1    2.0
H     0.7   -3.0    0.4
I    -2.0    1.6    2.1
H    -3.0   -1.5    0.6
I     3.2    0.6   -1.9
H    -0.3   -3.3   -1.9
N     0.5   -3.9   -0.0
H     1.5   -3.4   -1.8
I     2.0    3.2    1.9
C     0.5   -3.9   -1.5
P     0.5    1.3    4.0
H    -0.4   -4.3    0.4
I    -0.4    3.8   -2.0
C    -4.0   -1.4    0.9
H    -3.5   -0.5    2.7
H    -4.4   -0.5    0.5
H    -3.5    2.8   -0.1
H     4.6   -0.5    0.5
H     1.2   -4.6    0.4
N    -4.0   -1.3    2.4
H     4.4   -2.3    0.6
H    -3.6   -2.2    2.8
H     4.0   -1.3    2.7
H    -4.6   -2.3    0.6
C     5.0   -1.4    0.9
H     0.5   -4.9   -1.9
H    -3.0    3.8   -2.3
H    -0.4    0.8   -5.4
C    -4.0    3.7   -0.5
H     1.1   -3.1    4.4
H     4.0    3.8   -0.1
I    -2.3   -4.6    2.0
P    -4.0   -1.4   -3.8
H     1.0    1.9   -5.2
N     5.0   -1.3    2.4
H    -3.4    4.6   -0.1
H    -4.5    2.9   -2.3
N    -4.0    3.7   -2.0
H    -5.0   -1.3    2.7
H     1.0    5.6    1.6
H     4.6    2.9   -2.3
H    -0.5   -3.8    4.4
C     0.3    1.5   -5.9
I     4.3   -4.0   -1.9
I    -5.9    0.6   -1.9
H    -3.6    2.9    4.1
H     5.6   -0.5    2.7
H     5.5    2.8   -0.1
I    -0.9   -0.6    6.1
C     0.5   -3.9    4.8
H     6.0   -1.5    0.6
H    -5.0    3.8   -0.1
C     5.0    3.7   -0.5
I    -4.7   -4.0   -1.9
I     2.4   -2.0   -5.6
P     5.0   -1.4   -3.8
H     5.5   -2.2    2.8
N     5.0    3.7   -2.0
I    -3.4    1.3   -5.5
H     0.9   -4.9    4.4
H    -0.4    6.5    1.5
I     3.0    1.0    5.9
H    -0.3    2.4   -6.3
N     0.5    6.5    1.9
H    -0.1    5.7    3.7
H    -4.5    4.6   -2.3
H     1.5    0.1   -6.6
I    -2.1   -3.4   -5.5
H     4.5    4.6   -2.3
I     2.6   -6.1    1.9
H     4.0    4.0    4.1
H    -3.4    4.7    4.0
I    -0.4    3.6    6.0
C    -4.0    3.9    4.4
N     0.9    0.8   -7.0
H     5.6    4.6   -0.1
H     0.1   -3.1    6.6
C     0.5    6.5    3.4
H     5.4    2.9    4.1
N     0.5   -4.0    6.3
P     0.6    6.5   -3.7
H     6.0    3.8   -2.3
H     1.1    7.3    1.5
I     7.1    1.6    2.1
I    -1.2   -7.2   -1.8
H     1.5    6.4    3.7
H    -5.0    4.0    4.1
I     2.3    4.6   -5.7
I    -3.1    6.7    2.0
H     0.3    0.4   -7.7
C     5.0    3.9    4.4
P    -4.0   -6.7   -0.4
I     7.6   -0.7   -1.8
I     3.2    6.9   -1.9
H     1.6    1.4   -7.6
H     1.5   -4.0    6.6
H    -3.0    3.8    6.2
I    -7.1    3.2    1.9
I    -7.7   -1.1    2.0
I     5.7    1.3   -5.5
P     0.5   -4.0   -7.0
N    -4.0    3.9    5.9
H    -0.0   -4.8    6.6
H     4.5    3.1    6.3
H    -4.5    3.1    6.3
H     0.1    7.5    3.7
P     5.1   -6.7   -0.4
I     6.7   -4.6    2.0
H     5.7    4.7    4.0
I     4.1   -4.3    5.9
I    -2.1    6.0   -5.6
H    -3.5   -5.6   -5.3
P     0.5    1.2    8.4
H    -7.6   -3.4   -1.8
H     1.1   -8.3    1.5
I    -6.1    1.0    5.9
H    -3.0   -1.4    7.9
I    -1.2    8.3   -1.8
P    -4.0   -6.5    4.0
P    -8.5    1.3   -0.4
I     1.4   -6.6   -5.5
N     5.1    3.9    5.9
I    -4.9   -4.3    5.9
H    -8.3   -3.0    0.4
I    -6.6   -2.0   -5.6
H     0.1   -8.1    3.7
P    -4.0    3.9   -7.0
H    -4.4    4.8    6.3
H    -7.8   -4.6    0.4
I    -6.4   -6.1    1.9
H    -4.4   -0.3    7.9
H     4.6    4.8    6.3
P     5.0   -6.5    4.0
H     4.6   -0.3    7.9
I    -5.8    6.9   -1.9
H    -0.5   -9.0    1.5
I     5.9    6.7    2.0
C    -4.0   -1.3    8.2
H     4.4   -2.1    7.9
H     4.1   -6.5   -5.3
N     0.5   -9.1    1.9
I    -1.6   -6.9    6.1
N    -8.5   -3.9   -0.0
H    -4.7   -2.1    7.9
I     6.9   -3.4   -5.5
C    -8.5   -3.9   -1.5
I     3.2   -8.7   -1.9
H     6.0    3.8    6.2
N    -4.0   -6.5   -5.7
H     8.7   -3.3   -1.9
P    -8.5    1.3    4.0
I    -0.4   -1.6   -9.4
P     5.0    3.9   -7.0
H     5.5   -5.6   -5.3
H     0.3    5.6    7.7
I    -3.1   -8.8    2.0
H    -7.9   -3.1    4.4
P     9.5    1.3   -0.4
H     8.6   -4.3    0.4
I     8.7    3.8   -2.0
C     0.5   -9.1    3.4
H    -3.5   -7.3   -5.3
H    -8.0    1.9   -5.2
H    -5.0   -6.5   -5.3
C     5.0   -1.3    8.2
H    -3.0   -1.4   -9.2
P    -3.9    8.9   -0.4
P     0.5   -9.1   -3.7
I    -6.7    4.6   -5.7
I     3.4    7.1    6.0
H    -8.1    5.6    1.6
N     5.0   -6.5   -5.7
I     2.7    9.4    1.9
H    -7.5    0.1   -6.6
H    -8.5   -4.9   -1.9
H     6.0   -1.4    7.9
H     1.5   -9.2    3.7
I    -1.6    3.4   -9.3
I     1.4   -1.4    9.9
H    -9.4   -3.3   -1.9
H    -4.4   -0.4   -9.1
I     8.1   -0.6    6.1
H     0.9  -10.0    1.6
H     9.7   -3.0    0.4
I     3.4    1.9   -9.4
H     8.7    0.8   -5.4
H     4.6   -0.4   -9.1
I    -2.1    1.8    9.9
P     5.1    8.9   -0.4
H    -4.4   -5.5   -7.5
H     8.5   -3.8    4.4
H     1.5    5.3    8.7
I    -9.4    3.8   -2.0
N     9.5   -3.9   -0.0
H    -9.4   -4.3    0.4
N     0.9    6.0    8.4
N    -4.0   -1.3   -9.5
H     4.6   -5.5   -7.5
H     1.6    6.6    7.8
H     4.5   -2.1   -9.1
H    -3.5    8.2   -5.3
H    -4.5   -2.1   -9.1
P     9.5    1.3    4.0
H    -0.0    5.6   -8.8
H    -8.1   -4.9    4.4
C     9.6   -3.9   -1.5
C    -4.0   -6.5   -7.1
H    -3.0   -6.6   -7.5
H    -7.5    6.4    3.7
C    -8.5   -3.9    4.8
H    -0.1   -9.9    3.7
I     2.4    3.2    9.8
N    -4.0   -1.3    9.7
I    10.4   -1.1    2.0
I    -5.8   -8.7   -1.9
H     5.5   -7.3   -5.3
P    -4.0    9.0    4.0
I     1.5    9.0   -5.5
I   -10.5   -0.7   -1.8
C    -8.7    1.5   -5.9
H    -3.5   -0.4   10.1
I    -1.6    8.6    6.1
I     6.9    6.0   -5.6
H    -7.5    1.4   -7.6
N    -8.1    0.8   -7.0
I     3.0   -4.2   -9.4
I     7.8   -7.2   -1.8
H    -7.5   -4.0    6.6
I     5.9   -8.8    2.0
N     5.1   -1.3   -9.5
N    -8.5    6.5    1.9
I    -5.6    7.1    6.0
H     0.5   10.7   -1.9
H    -9.4    0.8   -5.4
H    -7.9    7.3    1.5
H    -3.5   -2.1   10.1
C     5.0   -6.5   -7.1
H     8.6    6.5    1.5
H     9.5   -4.9   -1.9
I     3.4   -8.5    6.0
H     1.5    6.3   -8.8
H     4.1   -1.3   10.1
I    -2.2   -4.4    9.8
H     8.7    2.4   -6.3
I    -0.9   -5.8   -9.3
N     5.0   -1.3    9.7
H     6.0   -1.4   -9.2
H     1.3   11.0    0.4
P     5.0    9.0    4.0
C     9.3    1.5   -5.9
I    -5.6    1.9   -9.4
I     8.6    3.6    6.0
H    10.5   -3.4   -1.8
N     0.5    6.4   -9.1
H     8.9    5.7    3.7
H    -9.6   -3.8    4.4
C    -8.5    6.5    3.4
H    10.3   -4.6    0.4
P    -4.0   -6.4    8.3
H     5.5    8.2   -5.3
P    -8.5    6.5   -3.7
N    -8.5   -4.0    6.3
I   -11.0    1.6    2.1
H     4.1    9.1   -5.3
I    -2.2   -9.6   -5.6
H     4.4   -7.3   -7.5
H    -5.0   -1.3   10.1
H    -0.4   11.3    0.4
C     9.5   -3.9    4.8
I    -2.3   10.9    2.0
H    -9.1    5.7    3.7
H     0.1    7.3   -8.8
N    -4.0    9.1   -5.7
I    -7.6   -6.6   -5.5
H    -4.7   -7.3   -7.5
H    10.1   -3.1    4.4
H    -3.4  -11.0   -0.1
H     5.5   -0.4   10.1
H    10.1    1.9   -5.2
H    -9.3    2.4   -6.3
H    10.0    5.6    1.6
I    -6.4    9.4    1.9
H    -8.9   -3.1    6.6
I     7.8    8.3   -1.8
I     2.3   -5.8    9.7
I    11.0    3.2    1.9
H    -9.5    6.5    1.5
H    -8.0   -8.3    1.5
H     1.0   10.7    4.4
H    -4.9    9.1   -5.3
C     0.3    6.7    9.5
H    -8.8    0.4   -7.7
N     0.6   11.6   -0.0
I    -9.9   -0.6    6.1
H     9.1   -3.1    6.6
H    -0.1    0.5  -11.7
P     5.0   -6.4    8.3
H     5.5   -2.1   10.1
N     9.5    6.5    1.9
H     6.0   -6.6   -7.5
H    -0.4    6.0   10.0
P    -8.5   -4.0   -7.0
I    -9.4    3.6    6.0
C    -4.0   -1.3  -11.0
I    -5.6   -8.5    6.0
H    -3.4    9.9   -5.3
C     0.6   11.7   -1.5
H     1.5    1.2  -11.7
H    -0.3    7.6    9.1
I     7.4   -6.9    6.1
H    -3.4   -0.5  -11.3
N     5.1    9.1   -5.7
I    -0.4  -11.7   -2.0
H     0.1    2.3  -11.7
H     9.9   -4.9    4.4
H     1.5   -8.9    7.8
I     4.1    6.1   -9.4
I    -6.1   -4.2   -9.4
H     4.4    8.3   -7.5
P    -8.5    1.2    8.4
C     9.5    6.5    3.4
H     4.0   -1.2  -11.3
H     9.3    0.4   -7.7
P     0.5   -3.9  -11.4
H    -3.0    9.0   -7.5
H     0.1   -8.3   -8.8
N     9.5   -4.0    6.3
H    -4.5  -11.0   -2.3
H    -4.6    8.3   -7.5
H     4.5  -11.0   -2.3
C     0.5    1.3  -12.0
H    -3.6   -2.3  -11.3
H    -0.3   -8.0    9.1
H    -3.4  -10.9    4.0
H   -12.0   -1.5    0.6
H     9.0   -4.8    6.6
P     9.6    6.5   -3.7
C     5.0   -1.3  -11.0
I     6.9    1.8    9.9
H    -9.1   -4.8    6.6
H    -8.9    7.5    3.7
I    -6.6    3.2    9.8
N    10.0    0.8   -7.0
C    -4.0    9.1   -7.1
I    -4.9    6.1   -9.4
I    -3.4    6.5    9.9
H     5.6  -11.0   -0.1
H     1.0    5.5  -11.0
P     0.5   -3.9   11.7
H     9.1    7.5    3.7
I    12.2    0.6   -1.9
H    -0.3   12.2   -1.9
H     1.5   12.2   -1.8
I     7.4    3.4   -9.3
H    -3.0  -11.8   -2.3
H    -5.0   -1.2  -11.3
C     0.5    6.4  -10.6
H     4.0  -11.8   -0.1
H    -7.5   -9.2    3.7
I   -11.4   -4.6    2.0
H     1.1    7.1   10.2
H    10.5    0.1   -6.6
P     9.6   -4.0   -7.0
C    -4.0  -11.8   -0.5
H    10.1    7.3    1.5
I     4.4   11.6   -1.9
H     8.5   -9.0    1.5
I    -7.6   -1.4    9.9
H    -0.5   11.7    4.4
H     5.6    9.9   -5.3
C     0.5   11.6    4.8
I     2.3  -11.0   -5.7
H     0.7   12.6    0.4
H     0.2  -10.0    7.7
C     5.0    9.1   -7.1
N    -8.5   -9.1    1.9
I    -4.6   11.6   -1.9
H    -9.0   -8.1    3.7
N    -4.0  -11.8   -2.0
H    -0.0   10.8    6.6
H    -7.5    5.3    8.7
H    -7.5    6.6    7.8
P    -4.0    3.8  -11.4
I   -10.3   -7.2   -1.8
H     5.7   -0.5  -11.3
I     1.9  -12.4    1.9
N     0.9   -9.5    8.4
H     9.1   -8.1    3.7
H     5.4   -2.3  -11.3
H    -0.5    6.5  -10.9
I     6.9   -4.4    9.8
P     9.6    1.2    8.4
H   -12.5   -0.5    2.7
H   -12.0    3.8   -2.3
H    -5.0  -11.8   -0.1
I     8.6   -1.6   -9.4
H     1.5   -9.2   -8.8
H   -12.5    2.8   -0.1
