         400
 sphere cut out from bulk 
H     1.5    1.6   -0.6
H    -0.5    1.8   -1.8
I    -2.0   -1.7   -0.2
I     2.5   -1.0    0.2
H     0.6   -0.6    2.6
H     0.4    2.8    0.1
C     1.1    2.5   -0.7
N     0.2    2.5   -1.9
I    -1.3    1.9    2.4
P     0.6   -3.2   -1.3
H     0.8    2.3   -2.8
C     0.4   -1.4    3.4
H     1.8    3.3   -0.8
H     0.7   -2.4    3.0
H    -0.7   -1.4    3.7
H    -0.2    3.4   -2.1
P    -3.8    0.4    1.3
I     0.4   -1.4   -4.0
I    -3.8    2.3   -1.3
H    -3.8   -0.4   -3.0
N     1.2   -1.1    4.6
H     2.2   -1.1    4.4
I     3.2    2.6    2.9
H     0.9   -0.2    5.0
H    -3.9   -2.1   -2.6
H    -2.3   -1.7   -4.4
H    -2.9   -4.3    0.6
P     5.1    0.4    1.3
I     0.7   -5.0    1.3
H     3.8   -1.3   -3.7
C    -4.1   -1.3   -3.4
H    -2.6    4.9    0.8
P     0.5    4.1    3.9
H     1.0   -1.8    5.4
I     5.1    2.3   -1.3
I    -4.1   -1.3    4.0
N    -3.3   -1.7   -4.6
H     5.1   -0.4   -3.0
I     2.3    2.7   -4.9
C     4.8   -1.3   -3.4
H     5.0   -2.1   -2.6
I     0.7    5.9    1.3
I     3.2   -4.7   -2.4
I    -1.2   -5.4   -2.9
H     3.9   -4.5    1.8
C    -3.4   -5.3    0.7
I    -2.2    2.0   -5.6
I    -1.2    5.6   -2.9
H    -3.4   -0.9   -5.4
I     4.8   -1.3    4.0
H    -5.1   -1.3   -3.7
I    -6.4   -1.0    0.2
H    -3.5    0.9    5.5
P     0.5    0.6   -6.6
H    -2.6   -6.0    0.8
C    -3.4    5.7    0.7
H    -3.5   -2.6   -5.0
H     0.9   -3.7   -5.5
H    -3.4    2.6    5.1
H     4.2    4.8    2.1
H    -2.3    1.9    6.1
H    -4.0    5.4   -0.1
H    -3.6   -5.0    2.8
I     0.4    2.1    6.5
H    -4.0   -5.5   -0.1
I    -5.7    2.6    2.9
P    -3.9    4.1   -3.9
H    -5.0   -4.5    1.8
N    -4.2   -5.2    1.9
N    -3.3    1.9    5.9
H    -4.7    4.8    2.1
I     6.9   -1.7   -0.2
N     4.7   -5.2    1.9
H    -2.9    6.7    0.6
H     4.9    5.4   -0.1
H     4.9   -5.5   -0.1
N    -4.2    5.7    1.9
H     6.0   -4.3    0.6
I     3.2    6.3   -2.4
N     5.6   -1.7   -4.6
H     1.0   -5.3   -5.1
H    -3.6    5.9    2.8
H    -7.4    1.6   -0.6
P     5.0    4.1   -3.9
N     1.2   -4.6   -5.9
I    -2.2   -5.4    4.9
N     4.7    5.7    1.9
C     5.5   -5.3    0.7
I     2.3   -4.8    5.6
H     1.0    5.6   -5.1
H     5.5   -0.9   -5.4
I    -2.2    5.5    4.9
H     4.2   -6.1    2.1
H     5.4    0.9    5.5
H     3.9    6.5    1.8
H     5.3   -5.0    2.8
H     5.4   -2.6   -5.0
I    -5.7   -4.7   -2.4
H    -0.2   -7.6   -2.1
H    -7.1    3.3   -0.8
H     1.8   -7.6   -0.8
P     0.5   -6.9    3.9
P     0.6    7.8   -1.3
H     5.5    2.6    5.1
C     5.5    5.7    0.7
H     2.2   -4.6   -6.1
I    -1.2   -1.8    7.6
H    -4.7   -6.1    2.1
H     6.3    4.9    0.8
H    -6.7   -1.1    4.4
H     3.8    2.2    6.8
H     6.6   -1.7   -4.4
H     0.4   -8.2    0.1
I     7.6    1.9    2.4
C    -7.8    2.5   -0.7
I    -1.3   -1.6   -8.1
I     3.2   -0.9   -7.6
P    -3.9   -3.3    6.6
N     5.6    1.9    5.9
H    -5.0    6.5    1.8
H     5.3    5.9    2.8
H    -0.7   -4.9   -6.8
C    -4.1    2.2    7.1
C     1.1   -8.4   -0.7
C     0.4   -4.9   -7.1
I     2.3    6.2    5.6
I    -6.6    2.7   -4.9
N     0.2   -8.5   -1.9
N     1.2    6.3   -5.9
I     3.2   -1.2    8.1
H    -8.3   -0.6    2.6
H     6.3   -6.0    0.8
H     8.4    1.8   -1.8
P    -3.9   -6.8   -3.9
H    -5.1    2.2    6.8
I    -5.7    6.3   -2.4
H    -8.1    2.3   -2.8
C     4.8    2.2    7.1
H    -3.9    1.4    7.9
H    -3.6    2.4   -7.7
P     5.0   -3.3    6.6
H     0.6   -4.1   -7.9
H    -8.5    2.8    0.1
H    -3.8    3.2    7.5
P    -8.3   -3.2   -1.3
I     6.7    2.0   -5.6
H     6.0    6.7    0.6
I    -4.1   -4.8   -6.5
H     0.7    5.1   -7.5
N    -7.7   -1.1    4.6
H    -8.2   -2.4    3.0
H     2.2    6.3   -6.1
H     8.2   -1.4    3.7
H     0.7    8.6    3.0
H     0.8   -8.7   -2.8
H    -0.7    6.0   -6.8
H     0.9    7.3   -5.5
H     6.6    1.9    6.1
N    -8.7    2.5   -1.9
P     0.6    0.4    9.2
C    -8.5   -1.4    3.4
P     5.0   -6.8   -3.9
H     0.8   -5.1    7.7
H    -0.2   -4.0    8.4
C     0.4    6.0   -7.1
I     3.2   -8.3    2.9
H    -0.5   -9.2   -1.8
I     4.8   -4.8   -6.5
I    -1.3   -9.0    2.4
H    -8.0   -0.2    5.0
H     5.0    1.4    7.9
I    -2.0    9.2   -0.2
H     4.2    1.3   -8.4
I     0.7    2.4   -9.2
I    -8.5   -1.4   -4.0
H     8.7    3.4   -2.1
H     1.5   -9.4   -0.6
I    -3.8   -8.7   -1.3
H     0.7   -5.9   -7.5
I    -5.7   -0.9   -7.6
H     5.1    3.2    7.5
N     9.1    2.5   -1.9
H     5.3    2.4   -7.7
H    -7.9   -1.8    5.4
H     0.8    5.8    7.7
H    -4.7    1.3   -8.4
I    -8.2   -5.0    1.3
H     9.3    2.8    0.1
H    -9.4    1.8   -1.8
I    -4.1    6.1   -6.5
I     7.7   -5.4   -2.9
N    -4.2    2.2   -8.6
H     9.5   -0.6    2.6
I     2.3   -8.3   -4.9
I     7.7    5.6   -2.9
N     0.2   -5.0    8.6
I     6.7   -5.4    4.9
I    -6.6   -4.8    5.6
H     3.9    2.9   -8.7
H    -9.1    3.4   -2.1
C     9.3   -1.4    3.4
I    -5.7   -1.2    8.1
I     6.7    5.5    4.9
H    -3.9    8.8   -2.6
N     4.7    2.2   -8.6
P     9.5   -3.2   -1.3
P    -8.4    4.1    3.9
H    -2.6    1.4   -9.7
I     4.8    6.1   -6.5
C     0.4    9.6    3.4
I     5.1   -8.7   -1.3
H    -0.5    5.3    8.7
H    -6.7   -4.6   -6.1
I    -8.2    5.9    1.3
I     2.5    9.9    0.2
I     9.3   -1.4   -4.0
H    -0.7    9.6    3.7
C    10.0    2.5   -0.7
H     9.6   -2.4    3.0
H     9.7    2.3   -2.8
H    -9.6   -1.4    3.7
I     0.4    9.5   -4.0
H    -8.0   -3.7   -5.5
H    -0.5   -5.7    8.7
H    -3.5    8.4   -5.0
H     0.4   -0.8  -10.4
H    -5.0    2.9   -8.7
H    -3.4   -8.4    5.1
H     0.6    6.8   -7.9
H    -7.1   -7.6   -0.8
N     0.2    6.0    8.6
I    -5.7   -8.3    2.9
P    -3.8   -3.1   -9.2
H     5.0    8.8   -2.6
H    -2.3    9.3   -4.4
H    10.4    1.6   -0.6
C    -3.4    2.2   -9.8
H     1.8   -4.1    9.7
I   -10.2    1.9    2.4
H     1.0    9.2    5.4
P    -8.4    0.6   -6.6
I    -6.6    6.2    5.6
H     0.6   10.3    2.6
I    -2.0    1.8   10.4
N    -7.7   -4.6   -5.9
I    -2.2   -8.9   -5.6
H    -7.9   -5.3   -5.1
H    -2.9    3.1   -9.9
P    -3.9    7.7    6.6
N    -3.3    9.3   -4.6
I    -8.5    2.1    6.5
H    -0.2    6.9    8.4
I     9.6   -5.0    1.3
H     3.8    9.6   -3.7
N     1.2    9.9    4.6
C    -4.1    9.6   -3.4
H    -7.9    5.6   -5.1
I     0.4   -8.9    6.5
I     7.7   -1.8    7.6
P     5.1   -3.1   -9.2
P     9.4    4.1    3.9
I   -10.9   -1.7   -0.2
C     1.1   -4.9    9.8
H     9.8   -0.2    5.0
H     2.2    9.9    4.4
H    -6.7    6.3   -6.1
N    10.1   -1.1    4.6
H     5.4    8.4   -5.0
I    -3.8   -5.1    9.2
H    -2.3   -9.1    6.1
I     7.6   -1.6   -8.1
I     2.5    2.5   10.7
I    -4.1    9.6    4.0
H     5.5   -8.4    5.1
H    10.7    3.3   -0.8
P     5.0    7.7    6.6
C     4.8    9.6   -3.4
H     1.5    5.1    9.9
H    -4.0   -2.0   10.4
P    -3.8  -10.5    1.3
C     1.1   -1.0  -11.2
N    -3.3   -9.1    5.9
H     1.5   -2.0  -11.1
I     9.6    5.9    1.3
H     9.9   -1.8    5.4
I    11.4   -1.0    0.2
H    -3.8   -7.8    7.5
C     5.5    2.2   -9.8
P    -8.3    7.8   -1.3
H    -2.9   -0.8   11.1
H    -5.1    9.6   -3.7
H     1.8   -0.2  -11.3
I    -3.8    5.8    9.2
P    -8.4   -6.9    3.9
I     9.3    2.1    6.5
P     9.4    0.6   -6.6
C    -7.8   -8.4   -0.7
I     4.8    9.6    4.0
H    -4.0    1.9  -10.7
I     6.9    9.2   -0.2
C     1.1    6.1    9.8
I     2.5   -4.6  -10.3
N    -7.7    6.3   -5.9
H     6.3    1.4   -9.7
H     4.9   -2.0   10.4
H     0.4   -4.6   10.7
H    -3.8   10.6   -3.0
H     1.5   -5.9    9.9
H     8.7   -7.6   -2.1
I    -6.6   -8.3   -4.9
I     5.1   -5.1    9.2
H     3.8   -8.8    6.8
P     5.1  -10.5    1.3
H     8.2   -4.9   -6.8
H    -8.5   -8.2    0.1
N     5.6    9.3   -4.6
I   -10.1   -5.4   -2.9
I    -6.4    9.9    0.2
C    -3.4   -1.7   11.2
H     9.8   -3.7   -5.5
H    -3.4   10.0   -5.4
H     4.9    1.9  -10.7
H     0.6  -11.6    2.6
I   -10.1    5.6   -2.9
H    -2.6   -2.5   11.3
H    -7.4   -9.4   -0.6
H     0.9   10.8    5.0
H    -3.5  -10.0    5.5
I     0.7   -1.5   11.8
I    -1.2    9.1    7.6
H     5.1   -7.8    7.5
H     1.8    6.8    9.7
H    11.1   -1.1    4.4
C    -4.1   -8.8    7.1
I     5.1    5.8    9.2
H     6.0    3.1   -9.9
I     7.6   -9.0    2.4
I    -2.0   -5.2  -10.7
H    -9.1   -7.6   -2.1
P    -3.8   11.4    1.3
H    -3.6   -8.6   -7.7
H   -11.1   -1.7   -4.4
H    -8.0    7.3   -5.5
C    -8.5   -4.9   -7.1
H     5.1   10.6   -3.0
H    -8.3   -4.1   -7.9
H    -8.1   -8.7   -2.8
N     5.6   -9.1    5.9
H    -8.2    5.1   -7.5
H     0.9  -11.1    5.0
I     2.5  -12.0    0.2
H     6.6    9.3   -4.4
H    -5.1   -8.8    6.8
I    -2.0    5.7  -10.7
H    -8.2    8.6    3.0
H     8.2    6.0   -6.8
C     4.8   -8.8    7.1
N    -8.7   -8.5   -1.9
P     9.4   -6.9    3.9
H    -3.8  -11.3   -3.0
P     0.5  -10.4   -6.6
H    -8.1   -5.1    7.7
P     9.5    7.8   -1.3
H     9.9   -5.3   -5.1
H     0.4    6.3   10.7
H     9.3   -8.2    0.1
I     2.5    6.4  -10.3
P    -8.3    0.4    9.2
H     3.9   -8.0   -8.7
I    -1.3    9.4   -8.1
I    11.1    2.7   -4.9
N     0.2   -1.1  -12.4
I    -3.8   -1.2  -11.8
H    -0.5   -1.8  -12.3
I     6.7   -8.9   -5.6
P     5.1   11.4    1.3
H     9.9    5.6   -5.1
P     0.6    4.3  -11.8
I    -8.2    2.4   -9.2
N    10.1   -4.6   -5.9
H   -11.5    4.9    0.8
I     0.7   -8.6   -9.2
H     8.4   -9.2   -1.8
H   -11.8   -4.3    0.6
H    -8.2   -5.9   -7.5
I     6.9    1.8   10.4
I   -11.1    2.0   -5.6
H     5.5   10.0   -5.4
N     9.1   -8.5   -1.9
H    -0.2   -0.1  -12.6
H     6.0   -0.8   11.1
C     5.5   -1.7   11.2
H    -8.1    5.8    7.7
H     5.4  -10.0    5.5
H     1.5   12.5   -0.6
C    -8.5    6.0   -7.1
H    -7.1   -4.1    9.7
H     5.3   -8.6   -7.7
C     9.3   -4.9   -7.1
I    -6.4    2.5   10.7
