         400
 sphere cut out from bulk 
H     1.0    1.1   -0.3
I    -0.3    0.2   -2.2
N     1.7    1.5    0.4
H     2.3    0.8    0.7
H     0.4    1.5    2.0
C     1.0    2.2    1.5
I     1.4   -2.4    1.1
H    -1.3   -2.5    1.0
H     2.3    2.2   -0.2
H     0.4    3.1    1.0
H    -3.3   -1.3    0.3
P     1.5   -2.6   -2.2
I    -3.1    1.9    1.0
N    -2.2   -3.0    1.0
H     1.8    2.6    2.2
C    -3.3   -2.0    1.1
H    -2.2   -3.5    0.1
H    -3.3   -1.5    2.1
P    -3.1    1.9   -2.2
I    -0.5    0.1    4.4
H     1.5    1.4   -4.0
H    -2.1   -3.6    1.8
I     4.1   -0.7   -2.1
I    -1.1   -4.4   -2.1
H    -4.3   -2.6    1.1
P     1.4   -2.5    4.3
I    -1.3    4.6   -2.1
I     3.2    3.7   -2.1
H    -2.3   -2.0   -4.4
I    -4.9   -0.7   -2.1
N     1.9    1.3   -4.9
H     4.7   -2.6    1.1
H     1.8    0.3   -5.3
P    -3.2    2.0    4.3
H     5.7   -1.3    0.3
I     3.9   -0.5    4.4
H     2.9    1.5   -4.9
H    -2.3    5.5    0.1
H     0.6   -5.9    1.0
I     1.5   -2.3   -5.4
H    -2.3    5.3    1.8
C     5.6   -2.0    1.1
I    -1.1   -4.5    4.1
H     0.1    2.0   -5.9
I    -1.2    4.5    4.1
I     5.9    1.9    1.0
H     5.7   -1.5    2.1
H     0.6    1.5    6.1
C    -2.8   -2.8   -5.0
C     1.2    2.2   -5.9
N    -2.3    6.0    1.0
H     1.3    3.2   -5.5
H    -3.6   -3.3   -4.4
I     3.3   -5.3   -2.1
P     5.9    1.9   -2.2
I    -3.4    1.9   -5.4
I     3.2    3.9    4.3
I    -5.1   -0.5    4.4
H    -2.1   -3.5   -5.3
H    -1.4    6.5    1.0
H    -6.7    0.8    0.7
I     1.2    6.6    1.1
P     1.4    6.4   -2.2
H     1.8    2.8    6.1
H     1.9   -6.3    2.2
C     1.1   -6.7    1.5
H    -2.7   -2.4    6.0
H    -6.7    2.2   -0.2
N     1.1    2.3    6.7
I    -5.8    3.7   -2.1
H     2.4   -6.8   -0.2
H    -4.2   -1.5   -5.9
H     1.6    2.1   -6.9
N    -3.5   -2.2   -6.2
N    -7.3    1.5    0.4
P     5.8    2.0    4.3
N     6.8   -3.0    1.0
I     3.3   -5.1    4.3
H    -2.8   -1.7   -6.8
H     0.4    3.0    7.0
H     6.8   -3.5    0.1
N     1.8   -7.4    0.4
H     5.4   -3.3   -4.4
H     4.8   -1.5   -5.9
H     0.5   -7.4    2.0
I    -3.0   -7.1    1.0
H    -4.4    6.3    1.1
C    -3.5    6.9    1.1
H     4.6    6.3    1.1
P     1.3    6.5    4.3
I     5.5    1.9   -5.4
H     1.1   -7.8   -0.3
H     6.8   -3.6    1.8
H    -6.1    1.5   -4.9
P    -2.9   -7.1   -2.2
H    -7.2    2.6    2.2
H    -2.2    5.5   -5.3
H     2.5    0.9    7.5
C    -3.1   -2.3    7.0
I    -7.6   -2.4    1.1
I    -5.7   -5.3   -2.1
H    -7.9    1.1   -0.3
H    -3.0   -1.3    7.4
I     1.2   -2.7    7.5
H    -3.7    5.7   -4.4
H     1.4   -5.7   -5.5
H     7.7   -2.5    1.0
I    -5.7    3.9    4.3
P    -7.4   -2.6   -2.2
H     6.6   -2.0   -4.4
C     1.7    1.6    7.9
I    -2.9    2.1    7.5
H    -3.9   -2.9   -6.8
H    -3.4    7.6    0.3
C    -7.9    2.2    1.5
C     6.2   -2.8   -5.0
H    -3.4    7.5    2.1
C    -2.9    6.2   -5.0
H    -4.2   -2.6    7.0
N     5.5   -2.2   -6.2
H    -7.5    1.4   -4.0
H     6.6    5.5    0.1
H     2.4   -8.2    0.7
H    -2.4    7.0   -4.4
H     1.0    1.1    8.5
I    -1.3   -0.5   -8.5
H    -1.4   -3.0    8.0
I     1.4    6.7   -5.4
I    -5.6   -5.1    4.3
N    -7.1    1.3   -4.9
H     6.7    5.3    1.8
P    -3.0   -7.0    4.3
H     1.6   -7.6   -4.0
H     4.8   -2.6    7.0
N    -2.4   -3.2    7.9
I     8.6    0.2   -2.2
H     5.0   -2.9   -6.8
H     1.9   -6.2    6.1
H     5.3    5.7   -4.4
H    -7.2    0.3   -5.3
C     5.5    6.9    1.1
H    -8.6    1.5    2.0
P    -7.5   -2.5    4.3
N     6.6    6.0    1.0
H     6.3   -2.4    6.0
C     1.3   -6.7   -5.9
P     1.3   -2.5   -8.6
H    -2.5   -4.2    7.6
H     2.2    2.4    8.4
I    -0.2   -8.8   -2.2
H    -8.5    3.1    1.0
H     0.2   -7.0   -5.9
I     7.7    4.6   -2.1
I     7.8   -4.4   -2.1
H     0.5   -6.0    7.0
I     3.2    0.1   -8.7
H    -2.8    6.6    6.0
H     6.2   -1.7   -6.8
I     6.0   -7.1    1.0
H    -2.6    4.7    7.6
N     2.0   -7.7   -4.9
P    -3.2    2.1   -8.6
C     5.8   -2.3    7.0
I     3.9    8.3   -2.1
H     6.9   -3.5   -5.3
H     3.0   -7.4   -4.9
I    -0.8    4.0   -8.5
H    -6.5   -6.8   -0.2
I    -0.5    9.1   -2.2
H     5.5    7.6    0.3
I    -3.3   -7.1   -5.4
I     8.4    0.1    4.4
I    -7.5   -2.3   -5.4
P     6.0   -7.1   -2.2
H     5.6    7.5    2.1
H     6.0   -1.3    7.4
N     1.2   -6.7    6.7
I    -9.3    0.2   -2.2
H     0.7   -7.4    6.1
H     9.3    1.5    2.0
H    -7.1   -6.3    2.2
H    -7.2    2.8    6.1
H    -2.8   -3.2    8.9
I     6.0    2.1    7.5
H     1.7   -6.8   -6.9
I     7.7    4.5    4.1
N    -3.6    6.8   -6.2
I    -0.6   -5.0   -8.5
I     1.1    6.3    7.5
I    -5.0    8.3   -2.1
H     9.4    3.1    1.0
I     7.9   -4.5    4.1
I    -0.4   -8.9    4.4
H    -4.1    6.1   -6.8
H    -6.5    0.9    7.5
C     6.0    6.2   -5.0
H    -7.7    3.2   -5.5
H     2.2    9.7    0.7
C    -7.8    2.2   -5.9
H     7.5    6.5    1.0
H    10.0    1.1   -0.3
I    -0.7    9.0    4.4
H    -1.5    6.0    8.0
N    -2.5    5.7    7.9
P     5.9   -7.0    4.3
P    -7.6    6.4   -2.2
H     0.9   10.1   -0.3
C    -3.2    6.7    7.0
I    -7.7    6.6    1.1
H     6.8    5.5   -5.3
I     3.8    8.4    4.4
H    -7.3    2.1   -6.9
N    -7.1   -7.4    0.4
H     1.9   -8.7   -5.3
I     3.9   -4.4   -8.5
H     4.9    6.1   -6.8
C    10.0    2.2    1.5
H    -8.4   -5.9    1.0
I     3.8    4.6   -8.5
H    -2.9    7.3   -6.8
H    -4.3    6.4    7.0
C    -7.8   -6.7    1.5
H    -4.3    7.5   -5.9
I    -9.5    0.1    4.4
I    -5.8    0.1   -8.7
H    -8.4    1.5    6.1
P     5.7    2.1   -8.6
H     6.5    7.0   -4.4
H    -6.5   -8.2    0.7
I    -2.8   -6.9    7.5
H     4.7    6.4    7.0
I     5.7   -7.1   -5.4
H   -10.2   -2.5    1.0
H     4.6    7.5   -5.9
N    -7.9    2.3    6.7
N     5.4    6.8   -6.2
N     1.6   10.5    0.4
I    10.3   -2.4    1.1
H     0.2   10.5    2.0
H    -5.9   -7.4   -4.9
N     6.5   -3.2    7.9
I     4.2   -9.7   -2.1
N    10.7    1.5    0.4
H     1.6    9.3   -5.3
H    -3.2  -10.3    0.3
H    -8.8    2.0   -5.9
C    -7.2    1.6    7.9
H     6.2    6.6    6.0
I    -5.1   -4.4   -8.5
I    -5.2    8.4    4.4
H     6.4   -4.2    7.6
P     1.1    6.5   -8.6
I    -1.1   -0.8   10.8
C     1.9   -7.3    7.9
P    -7.6    6.5    4.3
H     2.3   -6.5    8.4
H    -7.5   -5.7   -5.5
H     6.3    4.7    7.6
I    -5.2    4.6   -8.5
H    -2.9    5.8    8.9
H     9.1    2.0   -5.9
P    10.5   -2.6   -2.2
I    -4.8   -9.7   -2.1
H    -6.7    2.4    8.4
I    -7.7   -2.7    7.5
H    -7.8   -7.8   -0.3
H    -3.1    7.7    7.4
P     1.6   -2.6   10.7
H    -3.1  -10.5    2.1
H     1.3   10.3   -4.0
H    -2.8   -1.8  -10.7
P    -2.9    1.8   10.7
H    -7.1   -6.2    6.1
C     5.7    6.7    7.0
I     4.0   -9.5    4.4
I   -10.1   -4.4   -2.1
H     1.0    3.0  -10.8
H     6.1   -3.2    8.9
H     9.5   -5.9    1.0
H    10.4    1.4   -4.0
H    10.7    2.6    2.2
H     2.1    0.9  -11.0
I     3.4    0.0   10.8
H    11.3    0.8    0.7
H     2.6   -8.0    7.5
H    -7.4   -7.6   -4.0
I    -0.4    3.7   10.7
C     0.9   11.2    1.5
H     2.2   11.2   -0.2
H     7.6   -3.0    8.0
I    -3.2   10.9    1.0
I   -10.2    4.6   -2.1
P    -3.1   -6.9   -8.6
H     9.5    1.5    6.1
I    -7.6    6.7   -5.4
H    -8.5   -7.4    2.0
I     7.6   -0.5   -8.5
H    11.2    2.2   -0.2
H    -8.6    3.0    7.0
N    -6.9   -7.7   -4.9
I     1.5  -11.3    1.1
P    10.4   -2.5    4.3
N     1.8   10.3   -4.9
C    -3.2  -11.0    1.1
P    -3.2   10.9   -2.2
H    -1.2  -11.4    1.0
I    -4.9   -9.5    4.4
N   -11.1   -3.0    1.0
H     1.1   -7.8    8.5
H     6.0    7.3   -6.8
N     6.4    5.7    7.9
H    -8.0    1.1    8.5
H   -11.2   -3.5    0.1
I   -10.1   -4.5    4.1
C    -7.7   -6.7   -5.9
P    -7.7   -2.5   -8.6
H   -11.1   -3.6    1.8
H     5.8  -10.3    0.3
I     6.2   -6.9    7.5
I   -10.2    4.5    4.1
H    -6.8    9.7    0.7
H     0.0    1.9  -11.7
P     1.6  -11.6   -2.2
H     2.8   10.5   -4.9
C    10.1    2.2   -5.9
H     1.6   11.6    2.2
I    -0.2   -5.3   10.7
H    10.7    0.3   -5.3
N    10.8    1.3   -4.9
I    10.5   -2.3   -5.4
H    -4.2   -2.9  -10.9
C     0.9    2.5  -11.7
H     9.3    3.0    7.0
H    -2.2  -11.0   -4.4
I    -1.4    8.4   -8.5
H    10.3    3.2   -5.5
H    -7.2   -6.8   -6.9
H     0.3   12.0    1.0
C    -3.5   -2.2  -11.4
N     2.1    1.6  -11.8
I    -5.6    0.0   10.8
H     5.8    7.7    7.4
I     1.3   -2.5  -11.8
H     0.5   10.5    6.1
N    -2.1  -12.0    1.0
H     6.0    5.8    8.9
H     5.8  -10.5    2.1
P    -3.3   10.9    4.3
H     9.5   -7.4    2.0
I    10.2    6.6    1.1
H     4.8   -2.9  -10.9
C    10.1   -6.7    1.5
I   -12.1    1.9    1.0
N    -7.8   -6.7    6.7
N    10.0    2.3    6.7
H   -11.3   -2.0   -4.4
H   -10.4    6.5    1.0
I     4.3   -4.4   10.7
P     1.6  -11.4    4.3
P    10.3    6.4   -2.2
H   -12.3   -1.3    0.3
I     4.2    4.6   10.7
H    -7.1   -8.7   -5.3
I     5.7   10.9    1.0
H     1.2   -6.0  -10.8
P   -12.0    1.9   -2.2
H     3.0    2.1  -11.8
H    -4.1  -11.6    1.1
P     6.0    1.8   10.7
I    -4.6   -4.4   10.7
H     7.4    6.0    8.0
H    -0.0   10.9   -5.9
I    -3.3    2.2  -11.8
P     5.9   -6.9   -8.6
I     8.2    4.0   -8.5
C     5.7  -11.0    1.1
H   -12.2   -1.5    2.1
H     6.2   -1.8  -10.7
P     5.8   10.9   -2.2
P     1.5    6.3   10.7
C   -12.3   -2.0    1.1
H    -8.5   -6.0    7.0
H   -11.3    5.5    0.1
I    -4.8    4.6   10.7
I    -7.8    6.3    7.5
H    -6.6   -6.5    8.4
H   -11.2    5.3    1.8
H    -4.1   -1.4  -11.8
I     8.7   -8.8   -2.2
I     1.6  -11.3   -5.4
I    -3.5   10.9   -5.4
H    10.7    2.8    6.1
H     4.8  -11.6    1.1
H     2.3    9.9    7.5
H    -8.7   -7.0   -5.9
H    -4.1  -10.5   -5.9
H    -8.2   -7.4    6.1
H    -2.1  -12.5    0.1
I     8.5    9.1   -2.2
C     1.0   11.2   -5.9
