         400
 sphere cut out from bulk 
P    -0.1   -0.0   -0.3
I     1.9    0.5    2.3
I    -2.7    0.6    1.6
I    -0.4   -3.2    0.3
I    -0.0    3.1   -1.0
I     2.5   -0.5   -2.1
I    -2.1   -0.5   -2.8
H     3.1    2.3   -0.4
H    -2.9   -2.8    0.0
H    -1.0    3.2    2.7
H    -3.6    2.4    0.0
H    -4.1   -1.6   -0.2
H     1.0    2.3    3.8
H     0.7   -3.2   -3.3
H    -0.4   -3.6    2.8
H     1.4   -2.3    3.8
N    -4.0   -2.6    0.1
H     0.6    3.2   -3.5
C     3.6    3.2   -0.0
H     3.4   -3.4   -0.7
H    -0.2   -1.9    4.5
H     3.5    3.2    1.1
H    -1.4    2.3    4.2
C    -1.0    3.2    3.8
H    -1.3   -2.4   -4.3
H    -4.2   -2.7    1.1
H     3.1    4.1   -0.4
H    -1.4    2.2   -4.5
C     0.6   -2.7    4.4
N    -4.1    3.2   -0.4
N     0.5    3.2    4.2
H     5.0   -1.6   -0.2
H    -4.0    3.2   -1.4
H     1.1   -2.3   -4.8
N    -0.0   -3.9    3.8
C     0.7   -3.2   -4.4
H    -3.7    4.1   -0.0
H     0.9    2.3   -4.9
N     0.4    3.2   -4.5
H     0.9    4.0    3.8
H     4.9   -2.7    1.1
N    -0.8   -3.2   -4.7
C     4.5   -3.6   -0.8
N     5.2   -2.6    0.1
H    -4.4   -3.4   -1.8
C    -1.0    3.1   -4.9
H     0.7   -4.6    3.6
C    -4.7   -3.6   -0.8
N     5.0    3.2   -0.4
H     5.5    2.4    0.0
H    -1.4    4.1    4.2
H    -1.2   -4.0   -4.3
P     4.5    0.1    4.2
H     0.6    3.2    5.2
H    -0.8   -4.3    4.3
H     4.8   -3.4   -1.8
H     5.1    3.2   -1.4
H    -1.5    4.0   -4.5
P    -4.7    0.1    4.2
H     0.9   -3.0    5.4
P    -0.1    6.3   -0.4
P    -0.2   -6.3   -0.4
I     4.4   -3.1    3.4
I    -2.1   -0.3    6.0
H     1.1   -4.1   -4.8
P     4.4   -0.0   -4.6
H    -4.5   -4.6   -0.4
C    -5.6    3.2   -0.0
H     0.9    4.0   -5.0
H    -6.0    2.3   -0.4
H    -5.6    3.2    1.1
H     4.7   -4.6   -0.4
I     1.8    5.9    2.3
I     6.4    0.6    1.6
P    -4.7   -0.0   -4.6
H    -0.9   -3.2   -5.8
I    -2.7    5.9    1.5
I    -4.8   -3.1    3.4
H    -5.8   -3.4   -0.7
I     1.8    0.5   -6.5
I     4.5    3.1   -4.0
I     2.3   -6.0   -2.3
H     6.2   -2.8    0.0
H    -1.1    3.1   -6.0
H     5.5    4.1   -0.0
I    -4.6    3.1   -4.0
I    -2.3   -5.9   -2.8
I    -6.6   -0.5   -2.1
I     2.5   -0.4    6.7
I     1.7   -6.7    2.3
H    -6.0    4.1   -0.4
I     4.5    3.3    4.8
I    -4.6    3.3    4.8
I     2.4    6.7   -2.3
I    -2.8   -6.8    1.5
I     4.3   -3.2   -5.4
I     7.0   -0.5   -2.8
I    -2.2    6.8   -2.8
I    -2.8    0.5   -7.1
I    -7.3    0.5    2.3
I    -4.9   -3.2   -5.4
I     0.0    3.3    7.8
P    -0.1    0.1    8.5
I    -2.1   -5.8    5.9
H    -3.8   -3.1    7.0
P     4.4   -6.2    4.1
P    -4.7   -6.2    4.1
H     0.8    8.0    3.6
I     6.4    5.9    1.5
P     4.5    6.4    4.1
I    -0.3   -3.2   -8.3
I     1.8    5.7   -6.6
P    -4.6    6.4    4.1
H    -4.0    3.2    7.3
H    -7.8   -2.3    3.8
H     3.5    3.1   -7.7
P    -0.2   -0.1   -9.0
P     4.4    6.3   -4.7
I     2.4   -5.7    6.6
P     4.3   -6.4   -4.7
H     3.0   -8.6   -0.4
P     9.1   -0.0   -0.3
H     3.4   -2.2    8.2
H     7.8    2.3    4.2
H     8.1    3.2    2.7
P    -4.7    6.3   -4.7
H     3.2    2.3    8.3
H    -4.4    8.1   -0.4
H     7.7    2.2   -4.5
P    -9.2   -0.0   -0.3
I     7.1   -0.3    6.0
P    -4.8   -6.4   -4.7
I    -2.0    6.9    5.9
I     8.8   -3.2    0.3
H     7.9   -2.4   -4.3
H     3.7   -3.2   -7.9
H    -8.2    2.3    3.8
H    -3.7   -8.6   -0.0
H     4.8    8.1   -0.4
H     5.4   -3.1    7.0
I    -6.9   -6.0   -2.3
I     6.4   -6.8    1.5
I    -6.6   -0.4    6.7
H    -0.7    8.3    4.3
H    -0.3    9.0    2.8
H    -3.4   -2.2    8.6
H     0.9   -8.6    3.8
I    -0.3    9.5    0.3
I     6.9   -5.9   -2.8
C    -3.8   -3.1    8.1
H     5.2    3.2    7.3
N     0.0    8.8    3.8
I    -0.1   -9.5   -1.0
H    -8.4   -3.2   -3.3
C     8.2    3.2    3.8
I     6.4    0.5   -7.1
I    -2.8    5.8   -7.2
H    -8.1   -2.3   -4.8
H     3.4   -3.9    8.1
I    -0.2   -3.1    9.2
H    -1.5   -8.6    4.2
I     1.8   -6.9   -6.6
I     9.1    3.1   -1.0
H    -1.2    8.6   -4.3
H     7.7    4.1    4.2
I    -7.4    5.9    2.3
H    -3.7    2.2   -8.7
H    -3.6    2.4    8.7
I    -9.2    3.1   -1.0
H     7.7    4.0   -4.5
H     3.2    4.1    8.3
I    -6.8    6.7   -2.3
I    -7.4    0.5   -6.5
H    -8.6    3.2   -3.5
N    -4.1    3.2    8.3
H    -1.5   -8.6   -4.5
H    -3.4   -2.3   -8.9
I     2.5    6.9    6.6
N     3.9   -3.1    8.5
H    -8.2    2.3   -4.9
H     7.9   -4.0   -4.3
H     1.2    8.6   -4.8
H    -8.2    4.0    3.8
H     8.8   -3.6    2.8
H     3.5    9.3   -0.7
H    -1.1   -9.5    2.7
H     3.1    2.2   -9.2
C     3.6    3.1   -8.8
C     3.6    3.2    8.7
H    -3.4   -4.0    8.5
H     0.8   -8.7   -5.0
C     8.2    3.1   -4.9
H    -5.7    3.1   -7.7
C    -8.6   -2.7    4.4
H     0.8    9.5   -3.3
C    -8.5   -3.2   -4.4
C     3.5   -9.4   -0.0
I    -9.6   -3.2    0.3
H     3.5   -9.4    1.1
H     0.5   -9.5   -3.5
H    -5.4   -3.2   -7.9
I     7.0    6.8   -2.8
N     8.4   -3.2   -4.7
H     5.4   -8.6   -0.0
N    -8.7    3.2    4.2
C     4.5    9.1   -0.8
H    -8.0   -4.1   -4.8
H     3.3   -2.4   -9.3
H     8.9   -1.9    4.5
C     5.3   -3.1    8.1
I    -0.1    3.1   -9.7
C    -4.6    9.1   -0.8
H    -5.7   -2.2    8.2
N     3.8   -3.2   -8.9
H    -3.7    3.9   -8.7
H    -2.9    9.9    0.0
I    -7.4   -6.7    2.3
C    -1.0   -9.5    3.8
N     5.1    3.2    8.3
H    -3.6    4.1    8.7
H    -8.3   -3.0    5.4
H    -4.3    9.2   -1.8
H    -8.5   -4.6    3.6
N    -8.7    3.2   -4.5
N    -4.2   -9.4   -0.4
N     0.4   -9.5    4.2
I    -2.8   -6.9   -7.2
H     8.4   -4.3    4.3
H    -4.1   -9.4   -1.4
H    -3.4   -4.1   -8.9
H    -8.3    4.0   -5.0
C     0.7    9.5   -4.4
H     3.1    4.0   -9.2
H    -6.0    2.3    8.3
N    -4.1    3.1   -9.1
P    -0.2   -6.2    8.5
N    -5.3   -3.1    8.5
N     0.4   -9.5   -4.5
H    -6.1   -8.6   -0.4
H     8.1    3.1   -6.0
H     5.5    2.2   -8.7
H    -8.6    3.2    5.2
H     5.8   -2.2    8.6
H     4.9    9.2   -1.8
H    -9.4   -1.9    4.5
N    -0.7    9.4   -4.7
H     8.3   -3.2   -5.8
H    -9.5   -3.6    2.8
P    -0.1    6.4    8.5
N     9.1   -3.9    3.8
C    -3.9   -3.2   -9.3
H     5.6    2.4    8.7
N     5.0   -9.4   -0.4
N    -9.2   -3.9    3.8
I    -2.7    0.6   10.3
H    -5.7   -3.9    8.1
H     3.4   -4.1   -9.3
N    -3.9   10.0    0.1
C    -1.1   -9.5   -4.9
H     3.8   -3.1    9.6
H     3.1  -10.3   -0.4
C    -5.5    3.2    8.7
H     5.0   -9.4   -1.4
H     0.5   -9.4    5.2
H     9.7    3.2   -3.5
H    -4.2    9.9    1.1
C    -5.6    3.1   -8.8
H     5.7   -2.3   -8.9
I     7.0   -5.8    5.9
N     5.0    3.1   -9.1
H     9.9   -3.2   -3.3
N    -5.3   -3.2   -8.9
H    -5.7    9.3   -0.7
C     0.6   10.0    4.4
H     3.6    3.2    9.8
H    -3.7  -10.3    0.0
P     8.9   -6.3   -0.4
P    -0.1    6.3   -9.0
N     9.6    3.2    4.2
C    -5.6   -9.4   -0.0
I    -6.7   -5.7    6.6
H     0.9  -10.3    3.8
C     9.7   -2.7    4.4
P     9.0    6.3   -0.4
H    -6.0    4.1    8.3
H   -10.2    3.2    2.7
H     5.5    3.9   -8.7
P    -0.2   -6.4   -9.0
H     5.8   -4.0    8.5
H    10.1    2.3    3.8
H    -5.7   -9.4    1.1
I     4.4    9.6    3.4
N     9.6    3.2   -4.5
H     1.5   10.3    3.8
H    -0.8    9.4   -5.8
I     2.4   -0.5  -10.8
H     1.0    9.7    5.4
H     5.5    4.1    8.7
H     5.0    9.9    1.1
I     1.9    0.6   11.0
C     5.3   -3.2   -9.3
I    -4.7    9.6    3.4
H    -6.0    2.2   -9.2
C     9.8   -3.2   -4.4
H    -1.2   10.3   -4.3
I     6.4    5.8   -7.2
I     4.5   -9.5   -4.0
H    -5.8   -2.4   -9.3
P    -9.3    6.3   -0.4
I    11.0    0.5    2.3
C   -10.1    3.2    3.8
H    -1.5  -10.4    4.2
H    -1.2   -9.5   -6.0
P    -9.4   -6.3   -0.4
N     5.3   10.0    0.1
I    -4.7   -9.5   -4.0
H    -4.0    3.1  -10.2
I    -7.3    5.7   -6.6
H    -5.4   -3.1    9.6
H     5.7   -4.1   -8.9
H    -1.5  -10.4   -4.5
I     4.5   -9.4    4.8
H    10.5   -2.3    3.8
N    -9.9   -3.2   -4.7
H    10.1    2.3   -4.9
H     9.9   -4.6    3.6
H     1.2   10.4   -4.8
H     0.8  -10.3   -4.9
H     9.7    3.2    5.2
H    10.1    4.0    3.8
H   -10.4   -2.4   -4.3
I    -4.7   -9.4    4.8
I     7.1    6.9    5.9
H    10.3   -2.3   -4.8
H    -3.9   -3.2  -10.4
H     5.4  -10.3    0.0
H    -0.1   10.7    4.5
H   -10.6    2.3    4.2
I   -11.3   -0.5   -2.8
I    -6.7    6.9    6.6
I    -2.2   -0.5  -11.5
H   -10.0   -4.3    4.3
I     4.4    9.4   -5.4
H    -6.1    4.0   -9.2
H     6.3    9.9    0.0
C   -10.2    3.1   -4.9
H   -10.6    2.2   -4.5
H    -5.8   -4.1   -9.3
H    -4.1   11.0   -0.2
H    -5.6    3.2    9.8
H     5.1    3.1  -10.2
I     6.3   -6.9   -7.2
H    10.1   -3.0    5.4
I    -4.8    9.4   -5.4
I    11.7   -0.5   -2.1
H    10.1    4.0   -5.0
H   -10.4   -4.0   -4.3
H    -1.0    3.3   11.5
H   -10.0   -3.2   -5.8
H    -6.1  -10.3   -0.4
I   -11.9    0.6    1.6
H    10.3   -4.1   -4.8
I    -7.4   -6.9   -6.6
H   -10.6    4.1    4.2
H    -0.8   -3.0   11.7
H     5.1   11.0   -0.2
H     5.3   -3.2  -10.4
I    -2.7    5.9   10.3
H    -8.4    8.0    3.6
I    -0.1   -9.4    7.8
I     6.5    0.6   10.3
H   -10.6    4.0   -4.5
H     7.7   -8.6    4.2
H   -10.2    3.1   -6.0
H     3.1   -8.5    8.3
H     7.6   -8.6   -4.5
H   -12.1   -2.8    0.0
P     9.1    0.1    8.5
H     3.5    8.7    8.1
I    -9.2    3.3    7.8
I     9.2    3.3    7.8
H    -3.7    9.6    7.0
I     1.8  -12.1    2.3
H     0.8   -3.1  -12.1
I    -2.8  -12.1    1.6
H     8.0    8.6   -4.3
H    12.3    2.3   -0.4
H    -8.3   -8.6    3.8
I     1.9    5.9   10.9
I    -0.2    9.4   -8.3
I     8.9   -3.2   -8.3
I     2.6   12.1   -2.1
P    -9.3    0.1    8.5
H    -4.1   -9.4    7.3
I    -2.8   -6.7   10.3
H    -3.3    8.7    8.5
I    -2.1   12.1   -2.8
I     2.4   -5.9  -10.9
H     0.5    3.0  -12.2
H    -8.0    8.6   -4.8
