         400
 sphere cut out from bulk 
P     0.4   -0.0   -0.2
I    -1.6    0.4    2.4
I    -2.2   -0.5   -2.0
I     0.3    3.2   -0.7
I     0.5   -3.2    0.4
I     3.0    0.3    1.8
H    -2.7    2.4   -0.3
I     2.4   -0.5   -2.7
H    -3.8   -1.8   -0.6
H     3.7   -2.1   -0.9
H     0.9   -2.6    3.4
H     1.5    3.0    2.9
H    -0.9   -2.3    3.7
H    -0.5   -3.1   -3.1
H    -0.3    1.8    4.1
C    -3.5    2.8    0.3
H     4.2   -1.7    0.6
H    -3.1    3.3    1.2
H    -4.3    2.1    0.5
H     0.1    3.6   -3.2
C     0.1   -2.7    4.1
N     4.5   -2.2   -0.3
H     1.5   -2.3   -4.3
N     0.5    2.3    4.6
H     1.9    2.3   -4.2
N    -4.7   -2.2   -0.3
H    -0.9   -2.2   -4.6
H     1.2    1.5    4.8
C     1.1    3.4    3.8
C    -0.5   -3.1   -4.2
H    -4.9   -1.7    0.6
H     0.3    1.9   -4.9
H     4.9    2.1    0.5
H    -3.7   -3.8    0.7
H     0.3   -2.1    5.0
H     0.3    4.1    3.6
H     3.7   -4.1    0.4
C     1.0    2.7   -4.8
H     5.3   -1.8   -0.6
N     1.0   -3.2   -4.6
N    -4.1    3.9   -0.5
N     0.5    3.9   -4.2
C    -4.5   -3.7    0.0
H    -3.4    4.7   -0.7
H    -5.4   -2.1   -0.9
H    -0.4   -4.7    3.6
H    -4.5    3.6   -1.4
C     4.6   -3.7    0.0
H     1.5   -4.0   -4.2
P    -4.2   -0.1    4.3
N    -0.1   -4.1    4.4
H     4.7    3.6   -1.4
H    -4.3   -4.2   -0.9
H     0.1    2.6    5.5
H     4.3    4.4    0.1
H     1.9    3.8    4.4
P    -4.1    0.0   -4.6
H    -0.9   -4.0   -4.6
H     1.2    4.6   -4.0
P     0.4   -6.3   -0.1
C     5.6    2.8    0.3
P     0.4    6.3   -0.1
I    -4.1   -3.2    3.7
N     5.0    3.9   -0.5
I    -6.2    0.3    1.8
H    -0.3    4.3   -4.8
H     4.9   -4.2   -0.9
H    -4.9    4.4    0.1
H     1.0   -3.2   -5.7
P     5.0   -0.1    4.3
I    -1.6    6.0    2.4
I     2.3   -0.4    6.2
I    -4.3    3.1   -3.9
I    -1.6    0.4   -6.5
H     0.7   -4.5    4.8
H     1.4    3.0   -5.8
H    -0.9   -4.3    5.1
H     5.5   -3.8    0.7
I    -2.2   -6.0   -2.0
I     3.0    5.8    1.7
H    -5.4   -4.1    0.4
P     5.0    0.0   -4.6
H     6.5    2.4   -0.3
I     4.8    3.1   -3.9
H     6.0    3.3    1.2
I     2.3   -6.0   -2.8
I     5.1   -3.2    3.7
I    -2.2   -0.5    6.8
I     6.9   -0.5   -2.0
I    -6.7   -0.5   -2.7
I    -4.3    3.1    5.0
I    -2.2    6.6   -2.0
I    -1.6   -6.7    2.4
I    -4.1   -3.2   -5.2
H     5.7    4.7   -0.7
I     4.8    3.1    5.0
I     2.3    6.7   -2.8
I     3.0   -6.8    1.7
I     3.0    0.4   -7.1
I     7.5    0.4    2.4
I     5.1   -3.2   -5.2
I     0.3    3.1    8.1
I    -6.1    5.8    1.7
H    -3.4   -8.0   -0.7
P    -4.2    6.3    4.3
H    -7.3    2.3   -4.2
H    -7.7    3.0    2.9
P     0.4   -0.1    8.7
P    -4.2   -6.4    4.3
H    -0.4    8.0    3.6
P    -8.8   -0.0   -0.2
I    -1.5    5.8   -6.4
H    -3.2    3.1   -7.6
P    -4.1    6.3   -4.7
I     0.5   -3.2   -8.2
I     2.3   -5.9    6.1
P     0.4   -0.1   -8.9
H     4.1   -3.2    7.2
P    -4.1   -6.4   -4.7
H     1.2   -8.0   -4.0
P     4.9    6.3    4.3
H    -7.7   -2.3   -4.3
P     4.9   -6.4    4.3
H    -3.5   -3.1   -7.8
I    -8.6   -3.2    0.4
I    -6.8   -0.4    6.2
H     4.3    3.1    7.5
I    -2.2   -5.8    6.8
H    -3.1   -2.3    8.4
H     0.3   -8.5    3.6
H    -2.9    2.2    8.5
P     5.0    6.3   -4.7
H     4.3   -8.2    0.1
H    -8.2   -2.6    3.4
H    -7.3    3.8    4.4
I    -6.1   -6.8    1.7
P     5.0   -6.4   -4.7
H     8.3   -2.3    3.7
H     3.7    8.6    0.4
I    -6.1    0.4   -7.1
I     2.3    6.7    6.1
H    -5.1   -3.2    7.2
I     6.9   -6.0   -2.0
I    -8.9    3.2   -0.7
H    -8.0    1.5    4.8
H     0.7    8.1    4.8
I    -6.8   -6.0   -2.8
H    -4.8    3.1    7.5
I     0.5    9.5    0.4
I    -1.5   -6.9   -6.4
P     9.5   -0.0   -0.2
I     0.3   -9.5   -0.7
H    -4.3    8.5   -0.9
C    -8.1    3.4    3.8
H    -3.7    8.8    0.7
H     0.1   -9.0   -3.2
H    -4.9   -8.2    0.1
H    -0.3   -8.3   -4.8
N    -0.1    8.5    4.4
N    -4.1   -8.7   -0.5
I     3.0    5.8   -7.1
H    -7.7   -4.0   -4.2
H     8.2   -2.2   -4.6
H     3.6   -2.3    8.7
N     0.5   -8.7   -4.2
H     8.7   -3.1   -3.1
H     1.4    8.6   -4.2
H    -2.8    2.2   -9.1
I     7.0   -0.5    6.8
C    -3.3    3.1   -8.7
I     6.9    6.6   -2.0
H     3.9    2.3   -8.7
H     4.9    8.5   -0.9
H    -1.0    8.6   -4.6
C    -8.1    2.7   -4.8
C     4.1   -3.2    8.3
H    -3.1   -4.0    8.4
H     5.7   -8.0   -0.7
H    -2.9    4.0    8.6
H    -0.9    8.4    5.1
H     8.8    1.8    4.1
I    -2.2    6.8    6.8
I     7.5    6.0    2.4
H     3.6   -2.3   -8.9
N    -8.2   -3.2   -4.6
I    -6.8    6.7   -2.8
I     9.4    3.2   -0.7
I     0.5   -3.2    9.4
I     7.6    0.4   -6.5
H    -3.1   -9.4    1.2
N    -3.6   -3.2    8.8
C    -4.5    8.9    0.0
H    -0.5    9.5   -3.1
H     3.9    2.2    9.0
H    -3.1   -2.3   -9.2
C    -3.3    3.1    9.0
H    -8.0    4.6   -4.0
H     1.9   -8.8    4.4
N    -3.6   -3.2   -8.9
N     5.0   -8.7   -0.5
I     0.3    3.1   -9.6
C     4.6    8.9    0.0
H     5.9    3.1   -7.6
C     1.1   -9.3    3.8
N    -8.7    2.3    4.6
N     4.4    3.1    8.6
H     5.6   -3.1   -7.8
H    -7.7    3.0   -5.8
H    -5.4    8.6    0.4
C     8.7   -3.1   -4.2
I     9.7   -3.2    0.4
H    -4.5   -9.1   -1.4
H     1.5   -9.7    2.9
H     8.2   -4.0   -4.6
C    -5.0   -3.2    8.3
N    -4.8    3.1    8.6
H    -9.0    3.6   -3.2
H     4.7   -9.1   -1.4
H     3.6   -4.1    8.7
H     3.9    3.9   -8.7
H    -2.8    4.0   -9.1
C    -9.1   -2.7    4.1
H    -8.9    1.9   -4.9
I     3.0   -6.9   -7.1
I     7.6   -6.7    2.4
H    -5.2    2.3   -8.7
H    -8.1   -3.2   -5.7
N    -8.7    3.9   -4.2
C    -0.5    9.5   -4.2
H     5.5    8.8    0.7
H    -8.8    4.1    3.6
C    -3.5   -9.8    0.3
H    -8.9   -2.1    5.0
C     9.2   -2.7    4.1
H     9.2    3.6   -3.2
H    -9.4    1.8    4.1
H     3.7   -4.1   -8.9
H    -3.1   -4.0   -9.2
H     8.7   -4.7    3.6
H     3.9    3.9    9.0
N     4.4    3.1   -9.1
H     6.0   -2.3    8.4
H    -5.5   -2.3    8.7
H    -9.6   -3.1   -3.1
N     1.0    9.5   -4.6
H    -2.7  -10.2   -0.3
H     8.3   -4.3    5.1
H    -5.2    2.2    9.0
C     4.1   -3.2   -9.3
H     0.9   10.1    3.4
N    -4.7    3.1   -9.1
H    -8.4   -4.5    4.8
P     0.4    6.2    8.7
H    -5.5   -2.3   -8.9
P    -8.8   -6.3   -0.1
C     0.1   10.0    4.1
H     9.4    1.9   -4.9
P    -8.8    6.3   -0.1
P     0.4   -6.4    8.7
H     6.3    2.2    8.5
N     5.5   -3.2    8.8
N     9.0   -4.1    4.4
H    -5.2    3.9   -8.7
H     9.4   -2.1    5.0
N     9.6    2.3    4.6
H   -10.0   -2.3    3.7
P     0.4    6.2   -8.9
C     5.8    3.1   -8.7
H    10.0   -2.6    3.4
H    -9.0    2.6    5.5
H    -3.6   -3.1    9.8
N     5.5   -3.2   -8.9
H     9.4    4.1    3.6
C    -9.6   -3.1   -4.2
H     8.8    4.3   -4.8
I    -6.8   -5.9    6.1
I    -4.1    9.4    3.7
I     3.0    0.4   10.5
P     0.4   -6.4   -8.9
H    -3.3    3.1   10.1
H    -0.9   10.4    3.7
I   -10.7    0.4    2.4
I    -6.1    5.8   -7.1
I    -2.1   -0.5  -10.8
C    -5.0   -3.2   -9.3
N    -9.3   -4.1    4.4
H     1.0    9.5   -5.7
H     6.0   -4.0    8.4
H     9.3    2.6    5.5
H    -5.2    3.9    9.0
H    -5.5   -4.1    8.7
C     1.1   -9.9   -4.8
C     5.8    3.1    9.0
I    -4.3   -9.5   -3.9
N     9.6    3.9   -4.2
H    -9.6   -4.7    3.6
H    -5.5   -4.1   -8.9
H     6.0   -9.4    1.2
H     1.5   10.3   -4.3
H     3.7   10.6   -0.9
H     6.0   -2.3   -9.2
H     6.3    2.2   -9.1
H   -10.1   -2.2   -4.6
I    -1.6    0.4   11.2
H     1.9  -10.3   -4.2
C     5.7   -9.8    0.3
N     4.5   10.4   -0.3
H     6.3    4.0    8.6
I     5.1    9.4    3.7
H     1.4   -9.6   -5.8
I     6.9   -5.8    6.8
I     4.8   -9.5   -3.9
I    -6.8    6.7    6.1
N     0.5  -10.4    4.6
H    10.6    3.0    2.9
H    -4.3  -10.6    0.5
N    -4.7   10.4   -0.3
H    -0.9   10.4   -4.6
C    10.2    3.4    3.8
H    -9.4    4.3   -4.8
P     9.5   -6.3   -0.1
H     4.3    3.1  -10.1
P     9.5    6.3   -0.1
H     0.1  -10.0    5.5
H    10.3    1.5    4.8
I     7.6    5.8   -6.4
H    -3.8   10.8   -0.6
I   -11.3   -0.5   -2.0
I    -4.1    9.4   -5.2
N    10.1   -3.2   -4.6
I    -4.3   -9.5    5.0
H    -0.3  -10.8    4.1
C    10.2    2.7   -4.8
H    -4.8    3.1  -10.1
H     4.1   -3.2  -10.4
I    -6.1   -6.9   -7.1
H     4.9  -10.6    0.5
H     0.3   10.5    5.0
H    10.6   -2.3   -4.3
I     2.4   -0.4  -11.5
H     4.2   10.9    0.6
H     5.6   -3.1    9.8
H     6.0   -4.0   -9.2
H     6.3    4.0   -9.1
I     4.8   -9.5    5.0
H     0.3  -10.7   -4.9
H   -10.1   -4.0   -4.6
I    11.6   -0.5   -2.7
H     9.9   -4.5    4.8
I     6.9    6.8    6.8
I     5.1    9.4   -5.2
H    -5.4   10.6   -0.9
H    -5.0   -3.2  -10.4
H    -8.0   -8.0   -4.0
H    -4.9   10.9    0.6
H    10.3    4.6   -4.0
H    11.0    2.3   -4.2
H   -10.0   -4.3    5.1
H     5.9    3.1   10.1
H   -11.8    2.4   -0.3
H    10.2   -3.2   -5.7
I     7.6   -6.9   -6.4
H    10.6   -4.0   -4.2
H     5.3   10.8   -0.6
H     6.5  -10.2   -0.3
H     1.2  -11.1    4.8
I    -6.1    0.4   10.5
I    12.1    0.3    1.8
H    -7.3   -8.8    4.4
H     1.4    3.0   11.8
H    -7.7    8.6   -4.2
I    -8.6   -3.2   -8.2
I    -8.8    3.1    8.1
H     8.7    8.0    3.6
I     3.0    5.8   10.5
P    -8.8   -0.1    8.7
H     0.1    2.6  -12.1
H     1.0   -3.2   12.0
H    10.6    3.0   -5.8
I    -2.2   -5.8  -10.8
P    -8.7   -0.1   -8.9
H    -3.1    8.7    8.4
H    11.0    3.8    4.4
I     0.3   -9.5    8.1
I   -10.7    6.0    2.4
I   -10.7    0.4   -6.5
H    -2.8   -8.7    8.6
I     0.5    9.4   -8.2
I    -2.2   12.2   -2.0
H     4.1    9.4    7.2
I    -1.6  -12.2    2.4
H    -3.2   -9.6   -7.6
I     2.4   12.1   -2.7
H    -8.4    8.1    4.8
P     0.4   12.6   -0.2
P     0.4  -12.7   -0.2
H    -7.7   -9.7    2.9
I    -1.6    5.8   11.2
H   -12.2    3.3    1.2
H     8.2    8.6   -4.6
