         400
 sphere cut out from bulk 
H     0.5   -1.2   -0.0
N    -0.5   -1.6   -0.3
H    -1.2   -1.2    0.4
H    -0.7   -1.2   -1.2
I     2.5   -0.1    0.4
C    -0.5   -3.1   -0.3
I    -2.6   -0.0    2.0
H    -0.3   -3.5    0.7
I    -1.4   -0.1   -3.3
H     0.4   -3.5   -0.9
H    -1.4   -3.5   -0.7
H     3.0    1.2   -2.6
H     0.4    4.2    0.3
H    -1.0    0.6    4.1
H    -0.1   -1.6    4.0
H    -1.4    4.2    0.1
H     3.7   -1.0   -2.2
H    -0.3    4.2   -1.3
C    -0.4    4.6   -0.3
H     0.5    0.6    4.8
H    -4.4    1.2   -2.0
N    -0.4    0.3    4.9
C     4.0    1.0   -2.8
N     4.1   -0.5   -3.0
H    -3.9   -0.8   -3.2
I     1.4   -3.9    3.0
C    -0.5   -1.2    5.0
P     4.1    2.2    2.3
I     1.5    3.9    3.0
H     4.6    1.2   -2.0
P     4.0   -2.2    2.4
H     3.5   -0.8   -3.9
I     3.1    0.0    4.5
I     1.4    3.9   -3.6
I     1.5   -3.9   -3.6
H    -1.5   -1.5    5.2
I    -4.3   -3.9   -0.3
I    -4.2    3.9   -0.3
N    -4.9   -0.5   -3.0
C    -5.0    1.0   -2.8
H    -5.3   -1.0   -2.2
P    -5.0    2.2    2.3
P    -0.4    2.1   -5.5
H    -0.8    0.7    5.8
H     4.4    1.4   -3.7
P    -5.0   -2.2    2.4
H     0.1   -1.5    5.8
H     5.1   -0.8   -3.2
N    -0.4    6.1   -0.3
P    -0.4   -2.3   -5.6
H    -4.6    1.4   -3.7
I     4.8   -3.9   -0.3
I     2.0   -0.1   -5.8
I     4.8    3.9   -0.3
I    -6.5   -0.1    0.4
H     0.5    6.5   -0.6
H    -0.7    6.4    0.6
I    -3.1   -4.0    4.2
I    -3.1    3.8    4.4
H    -1.1    6.5   -1.0
H    -6.0    1.2   -2.6
I     6.5   -0.0    2.0
H    -5.5   -0.8   -3.9
I    -3.0   -4.0   -4.8
I    -3.1    3.8   -5.0
P    -0.4    5.4    5.0
P     4.1   -5.5   -2.8
I    -5.9    0.0    4.5
H     3.0   -6.5    2.0
P    -0.5   -5.7    4.8
P     4.1    5.5   -3.0
I    -1.9   -0.0   -7.5
H     3.3    1.6    6.9
H     3.7    6.8    1.5
H    -0.1    6.3   -4.8
P    -4.9   -5.5   -2.8
H     7.9   -1.2    0.4
H    -4.4   -6.5    1.4
P    -5.0    5.5   -3.0
H     4.6   -6.5    1.4
I    -1.4    7.6    2.7
I     2.6    7.7   -1.0
C     4.0   -6.8    2.2
H     3.9    1.6   -7.1
I     5.9    3.8    4.4
H     4.4   -6.3    3.1
I     5.9   -4.0    4.2
I     7.6   -0.1   -3.3
I     2.6   -7.9   -1.0
H    -4.0    1.6    7.2
H     7.6   -3.5   -0.7
H    -1.0   -7.0   -4.6
H    -4.0    7.0    2.5
H     3.5    7.0    3.2
I    -1.9    0.0    8.3
H    -4.7   -6.3    3.1
I    -2.5    7.7   -2.6
H     8.3   -1.2   -1.2
I     0.5    3.8    7.6
I    -1.4   -8.0    2.7
I     0.2   -4.1    7.5
I     5.9    3.8   -5.0
H    -8.6   -1.2   -0.0
I    -2.5   -7.9   -2.6
N     4.1    7.3    2.4
I     6.0   -4.0   -4.8
N     8.6   -1.6   -0.3
H     0.6   -7.0   -5.2
C    -5.0   -6.8    2.2
H     7.7    4.2    0.1
H    -5.3    6.8    1.5
C     4.1    2.0    7.6
H     4.2   -4.3    6.6
H     4.5    3.8    6.6
H    -4.5    3.8    6.6
C    -0.5    6.9   -5.7
H     5.0    1.6    7.2
H    -5.2    1.6   -7.1
H    -1.5    6.6   -5.9
I     0.4    3.8   -8.1
I    -7.5    3.9    3.0
H     5.1    7.0    2.5
H     8.0    0.6    4.1
N    -0.4   -7.2   -5.4
H     3.1    3.8    7.6
I    -7.6   -3.9    3.0
N    -5.0    7.3    2.4
H    -5.7    1.6    6.9
H     0.5   -9.1   -0.6
C     8.6   -3.1   -0.3
H    -6.1   -6.5    2.0
I     0.2   -4.1   -8.2
H    -0.7   -9.1    0.6
I    -7.1   -0.1   -5.8
H    -0.7   -6.7   -6.2
H    -4.8   -4.3    6.6
H     7.5   -1.5    5.2
H    -1.1   -9.1   -1.0
C    -5.0    2.0    7.6
I    -7.6   -3.9   -3.6
N     4.1    3.5    7.5
I    -7.6    3.9   -3.6
C     4.0    1.9   -8.2
H     0.1    6.6   -6.5
H    -8.6   -3.5   -0.9
H    -4.4    3.8   -7.4
H     3.1   -4.3   -7.7
H     8.7   -3.5    0.7
H     3.1    3.8   -8.1
H    -5.5    7.0    3.2
H     4.6    3.8   -7.4
N    -0.4   -9.5   -0.3
H    -4.0    1.6   -8.5
H     3.3    1.6   -8.8
N     4.1   -8.3    2.4
H     3.9    1.6    8.6
H     9.5   -1.2   -0.0
H    -8.6    4.2    0.3
H     3.1   -4.3    8.0
I     1.9    7.8    5.3
H    -4.1   -4.3   -7.5
H     3.7   -8.7    1.5
N    -9.5   -1.6   -0.3
I     1.9   -7.8    5.3
N    -4.9    3.5    7.5
H     3.0    9.0    2.0
N     4.1    3.4   -8.2
C    -5.0    1.9   -8.2
H    -1.0    8.6   -4.6
C     8.6    4.6   -0.3
H    -4.0   -8.6    2.5
C     4.1   -4.6    7.6
H    -8.5    0.6    4.8
H     8.7    4.2   -1.3
H     3.5   -8.6    3.2
I     3.2   -7.7   -5.2
C     4.0    8.8    2.2
H    -9.7   -1.2   -1.2
N     8.6    0.3    4.9
H     8.9   -1.6    4.0
I     3.2    7.8   -5.2
H    -0.9    0.6   -9.9
N    -0.4    8.3   -5.4
N    -5.0   -8.3    2.4
C     8.5   -1.2    5.0
H     4.9   -4.3   -7.5
C    -9.5   -3.1   -0.3
H     5.0    1.6   -8.5
H    -9.4   -3.5    0.7
H     0.1   -1.5   -9.9
H     3.4   -6.5    6.9
I     2.0   -0.1    9.9
H     9.4   -3.5   -0.9
H     0.6    8.6   -5.2
H     8.2    0.7    5.8
I    -6.5    7.7   -1.0
H    -4.1   -4.3    8.2
H    -9.1   -1.6    4.0
H    -5.1    1.6    8.6
H    -4.4    9.0    1.4
N    -5.0    3.4   -8.2
H    -4.4    3.8    8.3
C    -4.9   -4.6    7.6
C     4.1   -4.7   -8.1
H     7.9    6.5   -1.0
I    -6.5   -7.9   -1.0
H     4.6    9.0    1.4
H     5.1   -8.6    2.5
H   -10.2   -1.2    0.4
H     4.7    3.8    8.3
I     7.1   -0.0   -7.5
H    -9.3    4.2   -1.3
H    -5.3   -8.7    1.5
C    -5.0    8.8    2.2
P    -0.4   -2.3   10.1
H     9.5    4.2    0.3
H    -5.9    3.8    7.6
I     6.5    7.7   -2.6
C    -0.5   -8.7   -5.7
H    -0.1   -9.2   -4.8
P     8.6    2.1   -5.5
P    -0.4    2.2   10.2
H     4.9   -4.3    8.2
I    -2.0    7.7    6.8
H     3.8   -6.6   -7.2
C    -9.4    4.6   -0.3
I     6.5   -7.9   -2.6
N     8.6    6.1   -0.3
N     4.1   -6.1    7.5
P     8.6   -2.3   -5.6
H    -4.0   -6.5    7.3
I    -2.0   -7.8    6.8
H     8.4    6.4    0.6
C    -5.0   -4.7   -8.1
H    -5.9   -4.3   -7.7
H    -5.8    1.6   -8.8
H     4.4    9.2    3.1
H    -5.5   -8.6    3.2
N    -9.5    0.3    4.9
H    -5.9    3.8   -8.1
H    -8.5    6.5   -0.6
H    -8.9   -1.5    5.8
H     9.6    0.6    4.8
H    -1.6   -1.5  -10.5
N    -0.5    0.3  -10.8
H     4.5    3.7   -9.1
C    -0.5   -1.2  -10.7
H    -4.7    9.2    3.1
H    -4.5    3.7   -9.1
H    -5.9   -4.3    8.0
C    -9.5   -1.2    5.0
H    -1.5   -9.0   -5.9
H    -0.7    8.9   -6.2
H   -10.0    0.6    4.1
N    -5.0   -6.1    7.5
H     0.5    0.6  -10.9
I   -10.4   -0.1   -3.3
I     7.2    0.0    8.3
H     4.2   -4.3   -9.2
H     5.0   -6.5    7.3
H     9.2   -1.5    5.8
I    -5.8   -7.7   -5.2
N     4.0   -6.2   -8.2
C    -0.4  -11.0   -0.3
H   -10.4   -3.5   -0.7
P    -0.5    9.9    4.8
H    -5.7   -6.5    6.9
I    -5.8    7.8   -5.2
H    -5.2   -6.6   -7.2
H    -6.1    9.0    2.0
H     0.1   -8.9   -6.5
I     7.7    7.6    2.7
P    -9.5    2.1   -5.5
P     4.1   10.0   -2.8
H   -10.4    4.2    0.1
H    -4.8   -4.3   -9.2
N    -9.5    6.1   -0.3
P     4.1  -10.0   -3.0
P    -9.5   -2.3   -5.6
P    -0.4  -10.1    5.0
P     8.6    5.4    5.0
H     0.2    6.7    9.2
H     0.4  -11.3    0.3
P     8.6   -5.7    4.8
H     3.8   -6.5    8.5
N    -5.0   -6.2   -8.2
I     7.7   -8.0    2.7
H    -0.3  -11.3   -1.3
H    -1.4  -11.4    0.1
H    -4.1   -6.6   -8.4
H    -9.9    0.7    5.8
H     3.3   -6.5   -8.8
H     9.5    6.5   -0.6
P    -4.9   10.0   -2.8
I    10.5   -3.9    3.0
I    11.6   -0.1    0.4
P    -5.0  -10.0   -3.0
H     7.5    6.6   -5.9
I     3.1   -0.0  -11.2
H     8.1   -7.0   -4.6
H    -0.7   -6.7    9.5
I    10.5    3.9    3.0
H    -1.0    0.6  -11.6
H    -9.7    6.4    0.6
I    10.5    3.9   -3.6
I   -11.6   -0.0    2.0
I    -7.1    7.8    5.3
H    -0.1   -1.6  -11.7
I    10.5   -3.9   -3.6
I    -3.1    3.9   10.7
H     5.0   -6.6   -8.4
I    -7.1   -7.8    5.3
H   -10.6   -1.5    5.2
H     3.4    9.1    6.9
H    -5.2   -6.5    8.5
I    -2.0    7.7   -8.9
H     8.9    6.3   -4.8
H    -1.5    6.6    9.8
I    -3.0   -4.0   10.9
P    -0.5    5.4  -10.7
P    -9.5    5.4    5.0
I    -2.0   -7.9   -8.9
I    -8.6    3.8    7.6
H   -10.2    6.5   -1.0
P    -9.5   -5.7    4.8
H     7.9   -9.1   -1.0
I     1.5  -11.6    3.0
I     1.4   11.6    3.0
H    -9.1    6.3   -4.8
H    -0.3   12.1    0.7
I    -7.1   -0.1    9.9
H    -8.4   -7.0   -5.2
H     0.4   12.1   -0.9
H     3.8    9.0   -7.2
H    -1.4   12.1   -0.7
C    -0.5    6.9   10.0
I     1.5   11.6   -3.6
H    -4.0    9.0    7.3
P    -0.5   -5.7  -10.9
I    -8.8   -4.1    7.5
I    -3.1    3.7  -11.3
I     1.4  -11.7   -3.6
C     8.5    6.9   -5.7
H     8.3   -6.7   -6.2
H    12.0    1.2   -2.6
H    -5.7   -6.5   -8.8
H     3.5   -0.7   11.8
H     8.4   -9.1    0.6
I    -8.6    3.8   -8.1
I    -4.2  -11.7   -0.3
I    11.0   -0.1   -5.8
C    -0.5   12.4   -0.3
I     7.0    7.7    6.8
I    -4.3   11.7   -0.3
H    -8.5   -9.1   -0.6
N     8.6   -7.2   -5.4
I    -1.4   -0.1   12.4
I     7.0   -7.8    6.8
N    -0.4   -7.2   10.3
I    -3.1   -4.0  -11.5
H     0.6   -6.9   10.5
H     8.1    8.6   -4.6
I     4.8  -11.7   -0.3
I     9.2   -4.1    7.5
H     5.0    9.0    7.3
H    -0.1    6.4   10.9
I     4.8   11.7   -0.3
I    -5.9   -0.0  -11.2
H    -5.2    9.0   -7.2
I    -3.1   11.6    4.2
H    -5.7    9.1    6.9
I    -8.8   -4.1   -8.2
I     9.5    3.8    7.6
N     4.1    9.5    7.5
H     0.2   -8.9    9.2
I     1.5    3.9   12.1
I     1.5   -3.9   12.1
N     8.6   -9.5   -0.3
I     5.9    3.9   10.7
H     8.2    0.6   -9.9
H     4.4    1.5   12.0
I    -3.0   11.5   -4.8
H    -8.9    6.6   -6.5
H    -4.6    1.5   12.0
I    12.1    0.0    4.5
I    -3.1  -11.8    4.4
H    12.7   -1.0   -2.2
H     3.8    9.0    8.5
H     9.6   -7.0   -5.2
I     9.2   -4.1   -8.2
H    -4.1    9.0   -8.4
H     7.5   -1.5  -10.5
C    -9.5    6.9   -5.7
H    -0.7    8.9    9.5
I     9.5    3.8   -8.1
H   -10.0   -7.0   -4.6
N    -9.4   -7.2   -5.4
H     3.3    9.0   -8.8
H    -5.5   -0.7   11.8
N    -5.0    9.5    7.5
