         400
 sphere cut out from bulk 
H     0.1   -0.7    0.4
N    -0.9   -1.0   -0.0
H    -1.6   -0.3    0.4
H    -0.7    0.0   -1.8
C    -0.9   -1.0   -1.5
H    -1.1   -1.9    0.4
H    -0.1   -1.6   -1.8
I     2.2   -0.3    1.6
H    -1.8   -1.4   -1.8
H    -0.4    3.3    0.4
I     1.1    2.3   -2.3
I    -3.0    1.3    1.6
P     3.7    1.6   -0.7
H     2.6   -3.5    0.4
C    -0.9    4.3    0.7
H    -1.4    3.5    2.6
I    -1.7   -4.0    1.6
H    -1.9    4.4    0.4
N    -0.9    4.3    2.2
H     0.1    4.2    2.6
H     3.3   -2.7    2.6
I     1.1   -4.3   -2.3
I     4.4   -1.0   -2.3
I     2.8    3.9    1.6
H     4.3   -2.8    0.4
H    -0.3    5.1    0.4
C     3.7   -3.6    0.7
I    -4.7   -1.0   -2.3
I    -3.5    3.6   -2.3
P     3.7    1.6    3.8
H    -4.8   -2.8    0.4
N     3.7   -3.6    2.2
P    -5.4    1.6   -0.7
P    -0.9    4.3   -3.9
H    -1.3    5.2    2.6
H    -0.1   -0.3    5.9
H     3.1   -4.4    2.6
I     1.1    2.3    5.5
H     4.1   -4.6    0.4
H     3.3    0.7   -5.2
H    -1.8   -0.6    5.9
H    -0.7   -2.0    5.9
H    -4.4   -3.7    2.6
P    -0.9   -6.2   -0.7
C    -0.9   -1.0    6.2
I     6.1    1.3    1.6
H     4.7   -3.7    2.6
P     3.7   -3.6   -3.9
H     3.1    2.4   -5.2
C    -5.4   -3.6    0.7
I    -1.8    2.0   -6.2
H    -5.0   -4.6    0.4
I     2.2   -1.7   -6.2
P    -5.4    1.6    3.8
N     3.7    1.6   -5.5
N    -5.4   -3.6    2.2
H     3.4    5.9    0.4
H    -5.8   -2.7    2.6
I    -3.5   -5.5   -2.3
I     1.5   -6.6    1.6
I     5.6    3.6   -2.3
H    -4.4    1.7   -5.2
I     1.1   -4.3    5.5
I     4.4   -1.0    5.5
I    -6.9   -0.3    1.6
H     4.7    1.7   -5.2
I    -0.2    6.9   -2.3
I    -4.7   -1.0    5.5
H     2.7    6.5   -1.8
H    -6.4   -3.5    0.4
P    -0.9   -6.2    3.8
I    -3.5    3.6    5.5
H    -1.1   -0.0   -7.3
H     0.1   -1.2   -7.3
H     7.5   -0.3    0.4
I    -6.3    3.9    1.6
I    -3.0   -3.2   -6.2
P    -5.4   -3.6   -3.9
H     7.3   -1.4   -1.8
H    -1.4   -5.4   -5.2
H    -1.6   -1.7   -7.3
N     3.7    6.9   -0.0
H    -5.8    0.7   -5.2
N    -0.9   -1.0    7.7
H    -6.0   -4.4    2.6
N    -0.9   -1.0   -7.7
I     1.5    4.6   -6.2
N    -5.4    1.6   -5.5
H     4.5    6.2   -1.8
C     3.7    6.9   -1.5
H    -4.6    6.2   -1.8
H     2.6    1.5   -7.4
H     0.1   -6.1   -5.2
C     3.7    1.6   -7.0
I    -2.4    7.6    1.6
H     3.0    7.6    0.4
I     5.6   -5.5   -2.3
H     8.0   -1.9    0.4
H    -5.6    5.9    0.4
H    -1.1   -0.0    8.1
H     0.1   -1.2    8.1
N     8.2   -1.0   -0.0
H    -6.0    2.4   -5.2
P    -0.9    4.3    7.1
N    -0.9   -6.2   -5.5
C     8.2   -1.0   -1.5
H     7.2    4.4    0.4
H    -4.5    7.1    0.4
H    -1.6   -1.7    8.1
I     7.3   -4.0    1.6
H     4.6    7.1    0.4
I    -3.5   -5.5    5.5
H     4.3    0.8   -7.4
H     8.4    0.0   -1.8
I     5.6    3.6    5.5
I    -2.4   -8.1    1.6
I    -8.0    2.3   -2.3
H     2.6    1.5    8.1
H     3.0   -8.2    0.4
N    -5.4    6.9   -0.0
P     3.7   -3.6    7.1
H     7.6    3.5    2.6
I    -0.2    6.9    5.5
H     4.1    2.6   -7.4
H    -4.8    0.8   -7.4
C    -5.4    6.9   -1.5
H    -1.3   -7.1   -5.2
H     3.8   -7.8   -1.8
I     2.8   -5.9   -6.2
H     3.8    7.9   -1.8
C    -5.4    1.6   -7.0
I    -2.4    6.2   -6.2
H    -9.0   -0.7    0.4
H    -0.4   -5.3   -7.4
I    -0.2   -8.8   -2.3
H     3.8    5.9    5.9
H     9.1   -0.7    0.4
H     4.3    0.8    8.1
I     6.1   -3.2   -6.2
H    -5.0    2.6   -7.4
H     8.6    3.3    0.4
H    -6.4    6.5   -1.8
C     8.2    4.3    0.7
C    -0.9   -1.0   -9.2
H     9.0   -1.6   -1.8
H     7.3   -0.6    5.9
C     3.7    1.6    8.5
I    -8.0   -4.3   -2.3
I     1.5    9.1    1.6
C    -0.9   -6.2   -7.0
I    -6.9   -1.7   -6.2
H    -9.1   -1.6   -1.8
H     4.1    2.6    8.1
P    -0.9    4.3   -8.4
H    -4.8    0.8    8.1
N     8.2    4.3    2.2
P    -0.9    9.5   -0.7
I     5.6   -5.5    5.5
N     3.7   -8.8   -0.0
H    -0.1   -0.3   -9.6
H    -5.3   -7.8   -1.8
P    -5.4   -3.6    7.1
H    -5.3    7.9   -1.8
I    -1.7    2.0    9.3
H    -4.5   -8.6    0.4
C     3.7   -8.8   -1.5
H     7.8    5.2    2.6
H    -0.4   -5.3    8.1
I     2.2   -1.7    9.3
H    -6.1    7.6    0.4
H     2.7    7.3    5.9
H     4.6   -8.6    0.4
H    -1.8   -0.6   -9.6
I     7.3    2.0   -6.2
H     2.7   -9.2   -1.8
H    -0.7   -2.0   -9.6
H    -5.3    5.9    5.9
P     3.7   -3.6   -8.4
H    -5.0    2.6    8.1
H    -1.9   -6.3   -7.4
H    -6.4    1.5   -7.4
H    -9.8    0.0   -1.8
I    -8.0    2.3    5.5
N    -9.9   -1.0   -0.0
C     3.7    6.9    6.2
P     8.2    4.3   -3.9
H     3.0    6.2   -7.3
H    -9.5    3.3    0.4
C    -9.9   -1.0   -1.5
H    -1.3    8.6   -5.2
I    -7.5   -6.6    1.6
C    -5.4    1.6    8.5
H    -6.1   -8.2    0.4
H     8.8    5.1    0.4
H    -0.3   -7.1   -7.4
H    -9.0    4.2    2.6
I     6.7    7.6    1.6
P    -0.9    9.5    3.8
I    -3.0   -3.2    9.3
P     8.2   -6.2   -0.7
I     1.1    2.3  -10.0
N    -5.4   -8.8   -0.0
C     8.2   -1.0    6.2
H     3.4   -9.8    0.4
H   -10.2   -1.9    0.4
I    -0.2   -8.8    5.5
H     9.2    4.2    2.6
H     8.4   -2.0    5.9
C    -5.4   -8.8   -1.5
H    -1.9   -6.3    8.1
H    -6.4    1.5    8.1
I     1.5    4.6    9.3
C    -0.9   -6.2    8.5
H     4.5    7.5    5.9
I    -6.3   -5.9   -6.2
H    -4.6    7.5    5.9
I    -8.0   -4.3    5.5
P    -5.4   -3.6   -8.4
H    -0.3  -10.6    0.4
H   -10.6   -0.3    0.4
H    -9.3    5.1    0.4
I     6.7   -8.1    1.6
I    10.1    2.3   -2.3
H     7.5   -1.7   -7.3
H     4.5   -9.5   -1.8
H     3.0    6.2    8.1
H     2.7   -8.5    5.9
H    -4.6   -9.5   -1.8
H     7.6   -5.4   -5.2
N     3.7    1.6   10.0
C    -5.4    6.9    6.2
H    -0.3   -7.1    8.1
I    -7.5    4.6   -6.2
H     9.0   -0.3    5.9
H     3.3    0.7   10.3
H     8.0   -0.0   -7.3
C    -9.9    4.3    0.7
H    -4.5    6.6   -7.3
H    -9.1   -0.3    5.9
H     0.1    9.6   -5.2
H     4.6    6.6   -7.3
H    -1.3  -10.6    2.6
I     1.1   -4.3  -10.0
I     4.4   -1.0  -10.0
P     8.2   -6.2    3.8
N     3.7    6.9    7.7
N     3.7    6.9   -7.7
I     6.7    6.2   -6.2
N    -0.9    9.5   -5.5
I    -3.5   10.2   -2.3
H     3.1    2.4   10.3
N    -9.9    4.3    2.2
H     4.5   -8.2    5.9
H    -4.6   -8.2    5.9
I    -4.7   -1.0  -10.0
H   -10.9   -1.4   -1.8
I    -3.5    3.6  -10.0
H     7.5   -1.7    8.1
I    10.1   -4.3   -2.3
H     3.4    7.8   -7.3
H    -5.6   -9.8    0.4
H    -6.4    7.3    5.9
N     8.2   -1.0    7.7
H     3.4   -7.9   -7.3
N     8.2   -1.0   -7.7
H    -4.4    1.7   10.3
I    11.2   -0.3    1.6
I     2.8   -5.9    9.3
H   -10.5    3.5    2.6
H    -6.4   -9.2   -1.8
H    -0.3    8.7   -7.4
H    -6.1    6.2   -7.3
H     8.0   -0.0    8.1
H    -4.5    6.6    8.1
I    -2.4    6.2    9.3
C     3.7   -8.8    6.2
H     4.7    1.7   10.3
N    -5.4    1.6   10.0
H     4.6    6.6    8.1
I     8.9    6.9   -2.3
P    -9.9    4.3   -3.9
H    -1.9  -11.4    0.4
C    -0.9  -11.5    0.7
I     6.1   -3.2    9.3
H    -9.8   -2.0    5.9
H    -1.4   10.3   -5.2
I    -2.4   -9.6   -6.2
I   -10.8   -4.0    1.6
P     8.2    4.3    7.1
N    -5.4    6.9    7.7
N    -5.4    6.9   -7.7
I     1.1   11.4   -2.3
N     8.2   -6.2   -5.5
H    -9.0   -1.2   -7.3
N    -0.9  -11.5    2.2
I    -6.9   -1.7    9.3
H    -1.4   -5.4   10.3
I    -9.2    6.9   -2.3
P    -9.9   -6.2   -0.7
I    10.1    2.3    5.5
H     7.8   -7.1   -5.2
N    -0.9   -6.2   10.0
C    -9.9   -1.0    6.2
H     3.4    7.8    8.1
H     9.1   -1.2   -7.3
H   -11.0    4.4    0.4
H     0.1  -11.6    2.6
C    -0.9    9.5   -7.0
H   -10.4    5.2    2.6
H    -5.8    0.7   10.3
H     3.4   -7.9    8.1
I     5.6   10.2   -2.3
H     3.8    5.9   -9.6
H    -0.3    8.7    8.1
H     4.1   11.2    0.4
H    -6.1    6.2    8.1
I    -7.5    9.1    1.6
I    -3.5   -5.5  -10.0
I     2.8    9.9   -6.2
H     0.1   -6.1   10.3
I    -1.8   11.8    1.6
I     5.6    3.6  -10.0
I     7.3    2.0    9.3
H     3.1   11.3    2.6
H    -9.0   -6.1   -5.2
H     7.3   -0.6   -9.6
H     7.2   -6.3   -7.4
H    -1.9    9.4   -7.4
I    -3.5   10.2    5.5
C     3.7    6.9   -9.2
C    -5.4   -8.8    6.2
H     3.8   -9.9    5.9
H    -5.6    7.8   -7.3
H    -6.4   -8.5    5.9
H    -6.0    2.4   10.3
P    -0.9  -11.5   -3.9
I    -0.2    6.9  -10.0
H    -5.6   -7.9   -7.3
H     9.2   -6.1   -5.2
H    -9.0   -1.2    8.1
H    11.7   -3.5    0.4
H    -5.0   11.2    0.4
I   -12.1    1.3    1.6
I     2.8  -11.8    1.6
I    10.1   -4.3    5.5
H     9.1   -1.2    8.1
N     3.7   -8.8    7.7
N     3.7   -8.8   -7.7
P    -9.9   -6.2    3.8
H     2.7    7.3   -9.6
P    -0.9    4.3   11.5
P     3.7    1.6  -11.7
H     3.0   -9.5   -7.3
H    -5.3    5.9   -9.6
C     8.2   -1.0   -9.2
H   -10.9   -0.6    5.9
H    -0.4  -12.4    0.4
C     8.2   -6.2   -7.0
P     8.2    4.3   -8.4
H     8.6   -5.3   -7.4
I     8.9    6.9    5.5
H     2.6   12.2    0.4
H    -4.5   -9.1   -7.3
H   -10.2   -0.0   -7.3
H     7.2   -6.3    8.1
H    -1.9    9.4    8.1
H     4.6   -9.1   -7.3
P     8.2    9.5   -0.7
H    -1.3   -7.1   10.3
I    11.9    3.9    1.6
I    10.6   -6.6    1.6
H    -1.4  -12.3    2.6
H    -5.6    7.8    8.1
I   -10.8    2.0   -6.2
P     3.7   -3.6   11.5
N    -9.9   -1.0    7.7
H    -5.3   -9.9    5.9
N    -9.9   -1.0   -7.7
I    -6.3   -5.9    9.3
H    -5.6   -7.9    8.1
C     3.7   12.1    0.7
I     1.1   11.4    5.5
H     7.8    8.6   -5.2
C    -5.4    6.9   -9.2
I     5.6   -5.5  -10.0
I    -9.2    6.9    5.5
C    -0.9    9.5    8.5
I     8.9   -8.8   -2.3
H    -0.4   10.4   -7.4
I     1.5  -11.1   -6.2
I    -7.5    4.6    9.3
I     5.6   10.2    5.5
N     3.7   12.1    2.2
I    -3.5  -12.2   -2.3
P    12.8    1.6   -0.7
H     3.0   -9.5    8.1
H     8.4   -2.0   -9.6
H    12.3   -2.7    2.6
H   -10.5   -5.4   -5.2
P    -9.9    4.3    7.1
