         400
 sphere cut out from bulk 
H    -0.5    1.3    0.0
I     0.9    0.1    1.7
N    -1.3    1.7   -0.6
H    -1.0    1.3   -1.6
H    -2.2    1.3   -0.4
C    -1.3    3.2   -0.6
H     2.7   -1.0   -2.2
I    -0.4    0.1   -3.6
H    -0.4    3.6   -1.0
H    -0.7   -0.7    3.7
H    -1.5    3.6    0.4
I    -4.2    0.1    0.2
H    -0.4   -4.3   -0.2
H     2.2    0.9   -3.6
H    -2.1    3.5   -1.3
P     3.3   -2.2    1.9
H    -1.6    1.6    3.9
P     3.3    2.3    2.1
H     3.6    1.2   -2.6
C     3.3   -0.8   -3.1
I     2.5    3.8   -0.6
I     2.6   -3.8   -0.6
H    -2.1   -4.2    0.1
N     3.2    0.6   -3.4
N    -1.3   -0.4    4.5
H    -1.5   -4.2   -1.6
C    -1.3   -4.6   -0.6
I     4.8    0.1    0.2
H    -2.3   -0.7    4.3
C    -1.2    1.0    4.8
H     2.9   -1.4   -3.9
H    -0.2    1.3    5.0
H     4.3   -1.1   -2.9
H    -0.9   -1.0    5.3
I     1.3   -3.7    3.9
H    -4.7   -1.1   -2.9
H     3.8    0.8   -4.2
I     1.4    3.9    3.9
I    -3.2   -3.9    2.8
I    -3.2    4.0    2.8
I     4.2   -0.0    4.3
H    -1.8    1.2    5.7
H    -5.5    1.2   -2.6
N    -1.4   -6.1   -0.6
P    -1.3   -2.2   -5.8
I    -3.4    3.7   -3.9
I    -3.2   -3.9   -4.0
P    -5.8   -2.2    1.9
I    -4.9   -0.0    4.3
P    -1.3    2.3   -5.9
P    -5.8    2.3    2.1
H    -1.1   -6.5    0.4
I     1.3    3.9   -5.1
C    -5.8   -0.8   -3.1
I     1.3   -3.9   -5.2
H    -0.7   -6.5   -1.2
N    -5.9    0.6   -3.4
H    -6.4   -1.0   -2.2
H    -5.3    0.8   -4.2
H    -2.3   -6.4   -0.8
H     2.7   -6.2    1.7
H     6.9    1.3   -0.4
P     3.2    5.5   -3.1
P     3.2   -5.5   -3.2
I    -3.7   -0.0   -6.3
P    -1.2   -5.4    4.7
H     3.5   -1.2    6.4
P    -1.2    5.6    4.6
H    -6.1   -1.4   -3.9
I     5.8   -3.9    2.8
H     2.2    7.0    1.9
I    -6.5   -3.8   -0.6
I    -6.5    3.8   -0.6
I     5.9    4.0    2.8
I     0.2    0.0   -7.7
H    -6.9    0.9   -3.6
H     2.5   -3.4    6.6
I     5.7    3.7   -3.9
H     6.9    3.5   -1.3
H     3.8    6.6    2.5
C     3.3   -6.9    2.4
H     2.3   -1.2    7.5
I    -0.4   -7.6    2.4
N     7.8    1.7   -0.6
H     6.8   -0.7    4.3
I     0.3    0.0    8.1
H     3.6    7.2    0.9
I     5.9   -3.9   -4.0
H     6.9   -4.2    0.1
N     3.3   -1.6    7.3
N     3.2    7.2    1.9
H     2.9   -6.8    3.4
I     0.8   -7.7   -2.7
I    -0.4    7.9    2.4
H     3.0    4.2    6.4
I     5.4   -0.0   -6.3
H     4.3   -6.6    2.4
H     8.0    1.3   -1.6
I     0.8    7.8   -2.7
I    -8.2    0.1    1.7
H     7.6    3.6    0.4
C     7.8    3.2   -0.6
H    -4.7   -6.6    2.4
I    -1.9   -3.8    7.4
H     0.1   -6.1   -5.9
H    -5.6   -1.2    6.4
I    -2.0    4.0    7.3
C     3.3   -3.1    7.3
H     7.5    1.6    3.9
H     8.5    1.3    0.0
P    -5.9    5.5   -3.1
H    -2.1   -6.7   -5.1
P    -5.8   -5.5   -3.2
H     2.3   -1.2   -8.3
H     4.3   -3.4    6.9
H    -5.3    6.6    2.5
H     7.6   -4.2   -1.6
H     3.1   -3.5   -7.5
H     3.9   -1.2   -7.9
I    -4.3    7.8   -1.3
H     4.0   -1.2    8.0
I    -4.4   -7.7   -1.3
H     2.2   -8.5    1.9
C     7.7   -4.6   -0.6
N     7.8   -0.4    4.5
H    -6.3   -6.2    1.7
H    -5.4    7.2    0.9
N     3.2   -8.3    1.9
H    -4.8   -3.4    6.9
H     2.8    4.0   -7.7
H     3.6   -8.3    0.9
H    -1.1    9.0    0.4
H    -0.6    9.0   -1.2
H     8.3   -0.7    3.7
I     4.7   -7.7   -1.3
C     2.9    4.7    7.3
H     1.9    5.3    7.3
I     4.8    7.8   -1.3
H     0.1   -7.6   -5.2
N     3.2   -1.6   -8.6
C     7.9    1.0    4.8
C    -5.8   -6.9    2.4
N    -0.2   -7.0   -6.1
H     7.3    1.2    5.7
H    -2.2    9.1   -0.8
H     6.8   -6.4   -0.8
I     8.7    0.1   -3.6
N    -5.8   -1.6    7.3
I    -7.8   -3.7    3.9
C    -1.7   -7.1   -6.1
H     8.7    3.6   -1.0
N    -5.8    7.2    1.9
H    -5.1   -1.2   -7.9
H     3.1   -3.4    8.3
H     0.2    7.9   -5.2
I    -1.9   -3.8   -8.5
I    -7.7    3.9    3.9
H    -5.1   -1.2    8.0
H     2.9    4.0    8.2
N    -1.3    9.4   -0.6
C     3.4    8.6    2.4
I    -2.0    4.0   -8.6
C     3.2   -3.1   -8.6
H    -2.1   -6.5   -6.9
H     8.7   -4.3   -0.2
H    -9.6    1.3    0.0
H    -6.0    4.2    6.4
H     2.9    8.7    3.4
H     8.1   -1.0    5.3
C    -5.8   -3.1    7.3
N     7.7   -6.1   -0.6
H    -6.2   -6.8    3.4
H    -2.0    7.4   -6.2
H     2.8    9.3    1.7
H    -6.6   -3.4    6.6
P     7.8   -2.2   -5.8
H    -6.8    7.0    1.9
I    -3.6   -7.7    5.2
H     3.7   -8.9    2.5
I    -3.5    7.8    5.2
H    -5.5   -8.3    0.9
P     7.7    2.3   -5.9
I     0.4   -7.7    6.4
I     9.9    0.1    1.7
H    -4.2    5.2    7.6
C     2.8    4.7   -8.5
I     0.5    7.8    6.4
H     4.0    6.4    6.7
I    -7.8   -3.9   -5.2
H    -9.4    3.6   -1.0
I    -7.8    3.9   -5.1
H     2.5   -3.4   -9.2
I    -9.5    0.1   -3.6
H     3.5   -1.2   -9.5
H     0.1   -7.4   -7.0
H    -6.7   -1.2    7.5
H     1.9    5.2   -8.5
H     4.4    8.9    2.4
I     3.9    7.7   -5.5
N     4.0    5.7    7.5
H     7.9   -6.5    0.4
H    -6.0   -3.5   -7.5
I    -3.7    0.0    9.6
P    -1.3    2.4    9.9
I     3.9   -7.8   -5.5
H   -10.1    1.3   -1.6
H     8.9    1.3    5.0
N    -5.9   -8.3    1.9
H    -4.7    8.9    2.4
P    -1.3   -2.1   10.0
H    -9.4   -4.3   -0.2
H    -1.9    1.2  -10.1
H    -2.1   -8.1   -6.2
N    -0.2    8.5   -6.1
H     4.9    5.2    7.6
H    -2.0    8.8   -5.1
H     3.8    6.2   -7.5
H     4.2   -3.4   -8.9
N    -5.8   -1.6   -8.6
H    -9.8   -0.7    3.7
N   -10.3    1.7   -0.6
C    -1.7    8.4   -6.1
H    -5.0    6.4    6.7
H    -9.2    1.3    5.0
H    -1.0   -1.0  -10.5
C    -5.7    8.6    2.4
H    -4.2    5.2   -8.3
P     7.8   -5.4    4.7
H    -6.2    4.0   -7.7
H     8.4   -6.5   -1.2
H     0.2    8.1   -7.0
C    -6.2    4.7    7.3
H    -5.4   -8.9    2.5
N    -5.1    5.7    7.5
H    -4.8   -3.4   -8.9
P     7.9    5.6    4.6
H     3.0    4.1   -9.4
H    -5.9   -3.4    8.3
I    -5.1    7.7   -5.5
H    -6.8   -1.2   -8.3
I     5.5   -7.7    5.2
N     3.9    5.6   -8.3
C    -5.8   -3.1   -8.6
C   -10.4    3.2   -0.6
I    -5.2   -7.8   -5.5
H    -0.2    1.2  -10.8
I     5.6    7.8    5.2
H     4.9    5.2   -8.3
H     7.0   -6.7   -5.1
I     7.1    4.0    7.3
P     3.1  -10.0   -3.1
P    -1.3   -9.9    4.6
I     7.2   -3.8    7.4
I     5.4    0.0    9.6
P     3.3   10.0   -3.2
H    -6.2    4.0    8.2
C    -1.3   10.9   -0.6
H    -5.3    6.2   -7.5
H    -5.6   -1.2   -9.5
H   -10.5    3.6    0.4
H    -6.9   -8.5    1.9
C    -1.2    1.0  -11.0
H     0.2    9.4   -5.9
H     3.9    6.3    8.4
H    -6.1    8.7    3.4
H    -2.0   -6.4    8.9
P    -1.2   10.1    4.7
H    -0.3   11.2   -0.2
N    -5.1    5.6   -8.3
N   -10.4   -0.4    4.5
H   -11.2    1.3   -0.4
H    -6.3    9.3    1.7
H     6.8    9.1   -0.8
C   -10.4   -4.6   -0.6
H   -10.0   -1.0    5.3
C   -10.3    1.0    4.8
N    -1.3   -0.5  -11.3
I     1.3   -3.9   10.6
H   -10.6    1.6    3.9
H   -10.5   -4.2   -1.6
H    -1.4   11.3   -1.6
H    -7.1    5.3    7.3
H    -2.1   11.3    0.1
I     1.3    4.0   10.7
H     0.2   -7.4    8.9
C    -6.2    4.7   -8.5
H    -2.0    9.0   -6.9
H     0.2   -6.0    9.9
I    -8.3   -7.7   -2.7
I    -8.2    7.8   -2.7
H    -5.2    6.3    8.4
I    10.4   -3.7    3.9
I     7.1   -3.8   -8.5
I    -8.8    0.0   -7.7
H    -2.3   -0.7  -11.5
H     7.0   -6.5   -6.9
I     8.6   -7.6    2.4
I     7.1    4.0   -8.6
H     4.0    6.3   -9.1
H    -9.8   -6.5   -1.2
H   -11.2    3.5   -1.3
I    10.4    3.9    3.9
H    11.3    0.9   -3.6
C     7.3   -7.1   -6.1
H    -6.6   -3.4   -9.2
I     2.5  -11.7   -0.6
I    -8.8    0.0    8.1
H   -11.2   -4.2    0.1
I     8.7    7.9    2.4
P    -5.8   10.0   -3.2
H     7.1    7.4   -6.2
H    -6.1    4.1   -9.4
I     2.6   11.7   -0.6
H    -0.4  -11.9   -1.0
H    11.8   -1.0   -2.2
H     4.0   -9.1    6.7
N    -0.2   -7.0    9.8
H     0.2    8.1    8.9
P    -5.9  -10.0   -3.1
H    -1.5  -11.9    0.4
H     8.0    9.0    0.4
P   -10.4   -2.2   -5.8
H   -10.2   -6.5    0.4
N   -10.5   -6.1   -0.6
H    -1.6    1.5  -11.9
I     9.3    0.0   -7.7
C    -1.7   -7.0    9.8
I    10.3    3.9   -5.1
I     0.5    7.7   -9.4
H   -11.4   -0.7    4.3
I     0.4   -7.8   -9.4
H    -5.1    6.3   -9.1
P   -10.4    2.3   -5.9
H    -0.8   -0.7  -12.2
I    10.4   -3.9   -5.2
I    -0.4    0.1   12.2
H     3.8    0.9   11.6
N     7.8    9.4   -0.6
I    11.6    3.8   -0.6
H    -2.2  -12.0   -1.3
I     4.1   -0.1  -11.5
I    11.6   -3.8   -0.6
I     1.3  -11.6    3.9
I    -3.3  -11.5    2.8
H     3.0   -1.4   11.9
H    -7.2    5.2   -8.5
H    -1.9    7.4    9.7
H   -10.9    1.2    5.7
H    -8.9   -6.1   -5.9
I     9.4    0.0    8.1
I    -3.2   11.6    2.8
H     7.0   -8.1   -6.2
C    -1.4  -12.3   -0.6
H     8.4    9.0   -1.2
H     7.1    8.8   -5.1
I    -9.5   -7.6    2.4
H    -5.1   -9.1    6.7
P    -1.3   -5.5  -11.1
H     3.7   -9.3   -7.5
H     2.2    0.9   12.3
I     1.4   11.8    3.9
I    -9.4    7.9    2.4
H     7.2    1.2  -10.1
H     9.2   -6.1   -5.9
I     1.3   -3.8  -11.9
I    -4.9   -0.1  -11.5
P   -10.3    5.6    4.6
P   -10.3   -5.4    4.7
I     1.3    3.9  -11.9
P    -1.2    5.6  -11.2
I    -3.1   11.6   -4.0
P    12.3   -2.2    1.9
I     1.2  -11.6   -5.1
H     1.9  -10.2    7.3
H    12.0   -1.4   -3.9
H    -2.0   -8.1    9.7
P    12.4    2.3    2.1
N    12.3    0.6   -3.4
H    -2.0   -6.6   10.7
H    -5.3    0.9   11.6
C     7.4    8.4   -6.1
C    12.4   -0.8   -3.1
I     9.8   -7.7   -2.7
I     1.4   11.6   -5.2
P     7.8    2.4    9.9
N     8.8   -7.0   -6.1
H    -8.9   -7.6   -5.2
N     3.2    0.7   12.4
I    -3.2   -3.9   11.9
I    -3.4  -11.8   -3.9
H    -2.0    9.1    8.9
P     7.8   -2.1   10.0
I    -3.3    3.8   11.9
I     9.9    7.8   -2.7
H    12.6    1.2   -2.6
N    -0.1    8.5    9.8
N     3.9   -9.8    7.5
H    -8.9    7.9   -5.2
H     0.2   -7.6   10.6
C    -1.6    8.5    9.8
