         400
 sphere cut out from bulk 
H    -0.4    1.4   -0.7
H     0.1    0.7   -2.2
N    -0.6    1.4   -1.8
I     0.6    1.7    1.6
I     0.7   -2.1   -1.1
H    -2.1   -0.1   -1.7
C    -2.0    0.9   -2.1
P     2.9   -0.5    0.7
H    -0.4    2.3   -2.1
H    -1.0   -0.8    3.0
H    -2.7    1.6   -1.6
H    -2.1   -2.7    1.9
H    -2.1    0.9   -3.2
H    -0.6   -3.1    2.5
I     3.4    1.2   -2.0
C    -1.5   -1.6    3.6
N    -1.6   -2.8    2.8
I     2.2   -2.4    3.1
H    -2.3    3.8    0.9
I    -3.8   -2.7   -0.1
H    -2.5   -1.3    3.8
H     1.1   -1.9   -4.2
H    -0.7    4.7    1.1
P    -1.6   -4.3   -1.9
H    -1.0   -1.8    4.5
I    -4.2    1.4    2.4
H     3.3   -2.1   -3.2
C    -1.8    4.8    1.1
H    -2.0   -3.6    3.3
I     0.3    4.6   -2.7
I     0.6    0.8   -5.3
I    -2.2   -2.4   -4.4
P     2.6    3.6    3.3
I     4.9    1.4    2.4
N     1.8   -2.6   -4.6
H     3.3   -4.6    0.1
H     1.6   -3.5   -4.2
H    -1.9    5.3   -0.9
H     1.9   -5.5   -0.0
C     3.2   -2.1   -4.3
H    -0.9    1.5    5.5
I     5.2   -2.7   -0.1
H    -3.2    1.7    4.7
I    -0.6   -5.8    0.8
H     3.3   -1.1   -4.8
H    -2.2    5.2    2.0
I    -5.6    1.2   -2.0
N    -2.2    5.7   -0.0
P     2.8    3.0   -4.6
P    -6.1   -0.5    0.7
N     2.9   -5.6   -0.0
I     3.3    5.4    0.8
H     1.6   -2.7   -5.6
H    -1.5    3.2    5.5
I     2.0    1.9    6.0
C    -1.6    2.2    6.0
H    -3.2    5.8   -0.0
N    -3.0    1.7    5.7
H     6.3    1.6   -1.6
H     3.9   -2.8   -4.8
H     3.2   -5.9   -0.9
H    -1.8    6.6    0.1
H    -5.7   -2.1   -3.2
I     0.7   -5.8   -3.6
H    -3.2    0.8    6.1
H     2.9   -6.0    2.0
I     0.3    5.8    4.1
H     6.9   -0.1   -1.7
P    -1.7   -0.7   -7.0
H    -5.7   -4.6    0.1
C     3.3   -6.5    1.1
C     7.0    0.9   -2.1
I    -3.9    1.4   -6.2
H    -3.7    2.4    6.1
H    -5.7   -1.1   -4.8
H    -5.1   -2.8   -4.8
H    -1.5    2.2    7.1
C    -5.8   -2.1   -4.3
P     2.3    7.0   -1.9
P     3.1   -4.0    5.7
H     5.8    1.7    4.7
H     6.5   -1.3    3.8
H     6.9   -2.7    1.9
H     6.9    0.9   -3.2
I    -3.6   -5.5    4.1
H     6.7    3.8    0.9
H    -1.3    5.1   -5.8
I    -4.4    5.4   -3.6
I    -6.8   -2.4    3.1
I    -5.8    5.4    0.8
I     4.6    5.4   -3.6
I    -3.6   -6.6   -2.7
I     0.6   -2.3    7.6
H     4.4   -6.6    1.1
I     0.9   -6.2    5.0
I    -4.1   -1.5    6.7
H     2.8   -7.4    0.9
P    -6.5    3.6    3.3
H    -4.6   -6.6    1.1
H    -2.4    3.3   -7.0
I     5.1    1.4   -6.2
H     5.8    5.8   -0.0
N    -6.1   -5.6   -0.0
I    -4.2    5.1    5.0
P    -6.2    3.0   -4.6
H    -5.8   -5.9   -0.9
I     6.8   -2.4   -4.4
N     7.5   -2.8    2.8
H     5.3    2.4    6.1
P    -1.3   -7.7    3.3
N     6.0    1.7    5.7
I     4.9   -1.5    6.7
H     5.8    0.8    6.1
C     7.5   -1.6    3.6
I     0.6   -3.0   -7.9
H     7.0   -3.6    3.3
H     1.8    7.7    3.3
I     0.1    8.6   -0.1
I     4.8    5.1    5.0
H     8.0   -0.8    3.0
I    -8.3   -2.1   -1.1
C     7.2    4.8    1.1
H    -0.9    3.8   -7.8
I     1.9    4.5   -7.2
N     8.4    1.4   -1.8
C    -5.7   -6.5    1.1
H     2.6    0.9   -8.3
I    -8.4    1.7    1.6
H     8.6    1.4   -0.7
I     5.5   -5.5    4.1
C    -1.8    5.3   -6.7
P     7.4   -4.3   -1.9
N    -1.9    4.1   -7.5
H    -6.1   -6.0    2.0
H     6.8    5.2    2.0
P     2.6    0.1    8.4
H     2.3   -5.6   -6.5
N     6.8    5.7   -0.0
N    -7.2   -2.6   -4.6
H     7.1    5.3   -0.9
H     1.8    8.6    1.9
I     5.5   -6.6   -2.7
H    -7.1   -5.5   -0.0
H    -2.8    5.6   -6.5
H     2.1    5.2    7.1
H     3.3    8.1    2.5
P    -5.9   -4.0    5.7
H    -7.9   -1.9   -4.2
N     2.3    8.4    2.8
H     8.6    2.3   -2.1
H    -8.9    0.7   -2.2
H    -7.4   -3.5   -4.2
H     3.9   -6.1   -5.8
H     8.4   -3.1    2.5
H     9.1    0.7   -2.2
H    -0.1   -4.6    8.2
I    -7.0    1.9    6.0
H     8.1   -1.8    4.5
H    -3.5    7.7   -4.2
P    -2.0    7.3    5.7
H    -1.8   -6.0    7.1
C     3.3   -5.9   -6.7
P    -1.1   -8.3   -4.6
H    -9.4    1.4   -0.7
H     8.3    4.7    1.1
H    -1.3    6.1   -7.3
H    -1.6   -1.6    9.4
I    -0.9    1.1   -9.5
C     3.0    0.5   -9.2
H    -7.4   -2.7   -5.6
H     3.8   -5.1   -7.3
H     2.5   -0.5   -9.4
H    -6.2   -7.4    0.9
H    -1.2    8.4   -4.8
H    -2.4    4.3   -8.4
C     7.4    2.2    6.0
I    -3.6   -2.6   -8.7
H     7.2    6.6    0.1
I    -2.9    8.8    3.1
H     2.1    4.2    8.6
P    -6.7    7.0   -1.9
N    -9.6    1.4   -1.8
H     7.5    3.2    5.5
I     9.6    1.7    1.6
H    -1.8    9.2   -3.2
H    -5.2   -6.1   -5.8
H    -9.4    2.3   -2.1
H     8.1    1.5    5.5
I     9.7   -2.1   -1.1
I     1.7    8.8   -4.4
I    -8.4    0.8   -5.3
C     2.2    5.2    8.2
I    -1.4    5.5    8.3
H     4.1    0.4   -9.2
I    -2.0   -6.7   -7.2
H     2.5   -9.6   -1.6
H    -4.3   -8.9   -2.1
P     7.4   -0.7   -7.0
I    -8.7    4.6   -2.7
N    -0.3   -5.6    8.6
I     1.0   -9.9    2.4
I    -3.3   -9.6    1.6
I    -4.4    9.2   -1.1
H     6.6    3.3   -7.0
I     8.4   -5.8    0.8
H    -5.7    8.1    2.5
H     0.4   -6.2    8.1
C    -1.9    9.1   -4.3
I     4.6    9.2   -1.1
I    -0.5  -10.1   -2.0
H    -5.2   -5.1   -7.3
I     0.4    1.6   10.2
C    -1.7   -6.0    8.2
N    -3.3    8.6   -4.6
H     5.5    7.7   -4.2
H     4.7   -8.9   -2.1
I    -4.1    2.2    9.2
H    -9.6   -3.1    2.5
H    -5.0    0.4   -9.2
H     3.6   -8.1    5.5
H    -2.4   -5.3    8.7
H     4.3    5.0    8.1
H   -10.0   -0.8    3.0
H    -6.4    0.9   -8.3
H    -1.5   -0.3   10.4
N    -1.9   -1.2   10.3
H     1.6    1.5  -10.3
H     7.5    2.2    7.1
H     6.2    5.6   -6.5
C     2.4    9.7    3.6
P    -6.4    0.1    8.4
I     5.4   -2.6   -8.7
C    -5.7   -5.9   -6.7
H     1.5    5.9    8.7
H    -4.7    5.0    8.1
I     4.9    2.2    9.2
N     2.6    1.4  -10.3
H    -2.9   -1.1   10.3
I     3.7   -5.8    8.3
I    -8.3   -5.8   -3.6
H     1.4   10.0    3.8
I     9.3    4.6   -2.7
H    -4.3   -9.9   -0.7
H     1.9   -9.6    4.7
P    -1.3   -4.8   -9.6
H     1.5   -8.9    6.1
H     2.9    9.4    4.5
H    -3.5    8.6   -5.6
H     3.0    2.3  -10.2
H    -9.8    4.7    1.1
N     3.2   -7.1   -7.5
N     3.6    5.7    8.6
H    -6.7   -5.6   -6.5
H     7.7    5.1   -5.8
H     2.8   -7.9   -7.0
H     4.7   -9.9   -0.7
H    -4.0    9.3   -4.2
H    -7.2    7.7    3.3
P    -2.2   10.7    0.7
I     9.6    0.8   -5.3
N    -4.5   -9.9   -1.8
C     3.2  -10.3   -2.1
C    -6.0    0.5   -9.2
N     4.5   -9.9   -1.8
H    -0.1   -5.6    9.6
H   -10.0   -1.8    4.5
I    -7.1    4.5   -7.2
N    -6.7    8.4    2.8
H    10.2   -1.9   -4.2
N     7.1    4.1   -7.5
H    -5.4   -8.1    5.5
I     6.1    8.8    3.1
C     7.2    5.3   -6.7
H     3.8    6.6    8.2
I    -8.7    5.8    4.1
C   -11.0    0.9   -2.1
H    -6.9    5.2    7.1
C   -10.5   -1.6    3.6
I    -1.9   -9.3    6.0
H     3.0  -10.4   -3.2
H     2.9   10.4    3.0
I     5.7   -9.6    1.6
H   -11.1   -0.1   -1.7
H     2.7   -7.0   -8.4
H    -1.8   -7.0    8.6
N   -10.6   -2.8    2.8
I    -9.6   -5.8    0.8
N     2.1   -9.5    5.7
H    -1.8   10.1   -4.8
N     5.7    8.6   -4.6
P     7.7   -7.7    3.3
I    -8.1   -6.2    5.0
H    -7.2    8.6    1.9
H     5.0    9.3   -4.2
I    -5.3   -5.8    8.3
H    -6.5   -0.5   -9.4
C     3.5   -9.1    6.0
H     1.8   11.2   -1.7
H    -3.8  -10.6   -2.2
H    -9.9    1.5    5.5
H     6.6    4.3   -8.4
I    -8.4   -2.3    7.6
P   -10.6   -4.3   -1.9
H     4.2   -7.5   -7.8
H   -11.1   -2.7    1.9
H   -11.1    0.9   -3.2
N    -5.4    5.7    8.6
P     7.0    7.3    5.7
H     5.5    8.6   -5.6
H     2.9    1.0  -11.2
H    -0.4   -2.2   11.4
I     1.2   -9.8   -6.2
C    -1.5   -2.2   11.4
I     9.3    5.8    4.1
H    -5.2    6.6    8.2
I     3.6   -1.5   11.1
H    -6.6   -9.6   -1.6
H     3.8    5.7    9.6
P    -1.9    3.8   11.0
H    -4.8   -7.5   -7.8
P    -1.0  -11.8    0.7
H     7.2   -6.0    7.1
I    -0.2    9.7    6.7
H    -2.0   -3.1   11.2
H     8.1    3.8   -7.8
H    -6.9    4.2    8.6
H     3.0  -11.3   -1.7
P     2.6    6.4   -9.6
I    11.2   -2.4    3.1
C    -6.8    5.2    8.2
N    -5.8   -7.1   -7.5
I    -8.4   -3.0   -7.9
I     9.7   -5.8   -3.6
C   -10.8    4.8    1.1
H   -11.7    1.6   -1.6
H    10.6   -3.5   -4.2
P    11.9   -0.5    0.7
H     5.2  -10.6   -2.2
H   -11.3    3.8    0.9
I    -4.1    4.2  -10.4
H     6.1   -1.1   10.3
H     4.2   -9.8    5.5
H     3.6   -9.0    7.1
H    -6.0    2.3  -10.2
N    10.8   -2.6   -4.6
C    -5.9  -10.3   -2.1
H     7.4   -1.6    9.4
H   -11.1   -3.6    3.3
I     7.0   -6.7   -7.2
H    -6.1    9.4    4.5
H     7.2    9.2   -3.2
H   -10.9    5.3   -0.9
H     6.7   -5.3    8.7
C    -5.5   -9.1    6.0
H    10.9   -5.5   -0.0
I    -3.3  -10.5   -5.3
H    -4.8   -9.8    5.5
H   -11.5   -1.3    3.8
N    -6.4    1.4  -10.3
H     7.7    6.1   -7.3
H     4.4   -2.9  -11.0
C    -6.6    9.7    3.6
I     0.3    8.6   -8.7
I     4.9    4.2  -10.4
H     1.9  -10.5    6.1
I   -11.2   -2.4   -4.4
I    -7.3    8.8   -4.4
H   -10.5    3.2    5.5
H    -5.2    5.7    9.6
I    -4.5    8.3   -7.9
H    -6.3   -7.9   -7.0
H    -4.6   -2.9  -11.0
H    10.6   -2.7   -5.6
C     7.1    9.1   -4.3
I     4.5    8.3   -7.9
P     7.9   -8.3   -4.6
I     0.4    4.8  -11.4
H    -6.0  -10.4   -3.2
I    -8.9    8.6   -0.1
C   -10.6    2.2    6.0
H     7.8    8.4   -4.8
H     2.1   -2.7  -11.9
I    -5.4   -1.5   11.1
H    -6.1   10.4    3.0
H     2.1    1.7   12.2
C     1.9   12.2   -2.1
I     9.1    8.6   -0.1
I     9.7   -2.3    7.6
I     7.6    5.5    8.3
H   -11.2    5.2    2.0
P    11.6    3.6    3.3
I     8.1    1.1   -9.5
C     7.4   -6.0    8.2
N     7.1   -1.2   10.3
N   -11.2    5.7   -0.0
I    -4.5    9.0    7.6
P    -1.9    2.7  -12.2
I     1.0   -7.0  -10.4
H    -1.9   -1.7   12.3
I     4.5    9.0    7.6
