         400
 sphere cut out from bulk 
P    -1.6    0.1    0.6
I     0.3   -2.0   -0.8
I     1.1    1.6    1.9
H     1.2    2.4   -1.7
I    -1.4    2.1   -1.9
H     3.1    0.9   -1.3
H    -1.2   -1.4   -3.3
H     1.4   -2.2    2.7
N     2.1    2.8   -1.8
H     2.9   -2.1    1.7
I    -1.8   -1.6    3.3
C     3.1    1.7   -2.1
H     2.4    3.2   -0.9
H    -1.7   -3.8    0.6
H     2.7   -0.2    3.3
H     2.8    1.2   -3.1
C     2.5   -2.3    2.7
I    -4.1   -1.4   -0.5
I    -3.4    2.4    2.2
C    -2.0   -1.5   -4.0
H     2.1    3.5   -2.5
H    -2.7   -0.8   -3.9
N     3.0   -1.2    3.6
P     2.8   -3.4   -2.0
I     4.8   -1.4   -0.5
H    -2.4    4.4    0.7
H     4.1    2.1   -2.2
C    -1.5   -4.8    1.0
H    -0.5   -5.1    0.7
H    -0.6    1.5    4.9
H    -2.0    2.2    4.3
H    -2.4   -2.5   -4.0
H     2.9   -3.2    3.1
H     2.6   -1.3    4.6
H    -1.7   -4.8    2.1
H    -0.9   -0.4   -5.5
H     4.0   -1.1    3.7
I     2.9   -1.6   -4.6
H    -4.8    2.1   -2.2
N    -1.3   -1.4   -5.4
N    -1.3    2.3    5.1
P     2.9    3.9    3.3
N    -2.5    5.4    0.4
H    -2.4    5.4   -0.7
H    -0.6   -2.1   -5.6
H    -0.9    3.2    5.0
H    -0.5    6.0    0.7
H    -5.8    0.9   -1.3
H    -4.9   -1.1    3.7
I     2.8   -5.5    0.6
H    -2.4   -5.7   -0.7
N    -2.5   -5.7    0.4
I     2.8    5.6    0.6
P    -1.6    3.9   -4.6
I     5.5    2.4    2.2
I     0.2    1.8   -6.1
C    -5.8    1.7   -2.1
H    -3.5   -5.4    0.6
C    -1.5    6.3    1.0
H    -6.0   -2.1    1.7
H    -2.0   -1.4   -6.2
H    -3.5    5.6    0.6
I     1.1    5.5   -3.7
I     1.1   -5.6   -3.7
H    -1.7    6.3    2.1
I    -3.5   -5.1   -3.0
I     2.9    2.0    5.9
I     0.2    5.4    4.3
H    -6.1    1.2   -3.1
H    -2.4    1.1    6.5
P    -1.6   -3.5    5.8
N    -5.9   -1.2    3.6
C    -1.9    2.1    6.4
H    -6.2   -0.2    3.3
I     1.1   -1.9    6.7
I     0.2   -5.7    4.3
H    -2.4   -6.7    0.7
P    -6.1   -3.4   -2.0
C    -6.4   -2.3    2.7
H    -6.5    3.2   -0.9
P     7.3    0.1    0.6
H     6.2   -0.8   -3.9
I    -4.2    2.4   -5.7
H    -6.0   -3.2    3.1
N    -6.8    2.8   -1.8
H    -1.7    7.3    0.6
I    -3.4    6.0   -3.0
H    -1.2    2.2    7.2
H    -2.7    2.9    6.5
P     2.8    0.2   -7.1
H     5.4   -5.4    0.6
I     4.7    2.4   -5.7
I    -6.0   -1.6   -4.6
H     5.4    5.6    0.6
H    -6.3   -1.3    4.6
H     6.5    4.4    0.7
P    -6.0    3.9    3.3
I     7.1   -1.6    3.3
I     5.4   -5.1   -3.0
H     6.5   -2.5   -4.0
I     7.5    2.1   -1.9
H    -6.8    3.5   -2.5
H     2.6   -4.9   -5.9
H     7.2   -3.8    0.6
I    -4.2   -5.1    4.8
C     6.9   -1.5   -4.0
I    -6.1   -5.5    0.6
I    -7.8    1.6    1.9
H     2.4   -7.8   -0.9
I    -6.1    5.6    0.6
H    -7.5   -2.2    2.7
H     2.1   -7.6   -2.5
H    -7.7    2.4   -1.7
I    -3.5   -1.4    7.5
N     6.4    5.4    0.4
P     2.8    7.6   -2.0
P     2.8   -7.2    3.3
I     4.7   -5.1    4.8
H     6.9    2.2    4.3
H     6.5    5.4   -0.7
H     7.7   -1.4   -3.3
N     6.4   -5.7    0.4
H     2.6   -3.9   -7.2
H     6.5   -5.7   -0.7
I     5.5    6.0   -3.0
I    -6.0    2.0    5.9
P    -1.7   -7.1   -4.6
I    -4.2    6.0    4.8
N     2.1   -8.3   -1.8
C     7.4   -4.8    1.0
I     1.0   -2.1   -8.5
I    -8.6   -2.0   -0.8
N     3.0   -4.8   -6.8
H     2.6    6.1   -5.9
H     1.1   -8.7   -1.7
P     2.8    0.2    8.5
H     7.2   -4.8    2.1
H     2.9    4.2   -7.3
H    -1.7    2.6   -8.4
H     2.9    7.9    3.1
I     4.7    6.0    4.8
I    -3.4   -1.2   -8.3
I    -1.9   -5.3   -7.2
H     2.1   -3.9    7.9
I     0.3    9.1   -0.8
H     6.5    1.1    6.5
H     4.0   -4.8   -6.8
I    -1.4   -8.9   -1.9
H     2.8    4.9    7.4
H     6.9   -1.4   -6.2
H     6.5   -6.7    0.7
H    -0.9   -7.9    5.0
I     5.4   -1.4    7.5
H     1.5    8.8    2.7
P    -6.1    0.2   -7.1
N     7.6   -1.4   -5.4
N     7.6    2.3    5.1
H     1.4    5.2   -7.7
I    -1.8    5.8   -7.2
I     9.2   -2.0   -0.8
P     7.3    3.9   -4.6
H     6.2    2.9    6.5
I    -3.4   -8.7    2.2
C     2.5    8.8    2.7
H     2.9    9.0    1.7
C     2.5    5.2   -7.7
H    -4.9   -4.8   -6.8
C     7.0    2.1    6.4
P    -1.6    7.6    5.8
H     8.0   -0.4   -5.5
I     1.0   -9.5    1.9
H    -2.4    8.5   -4.0
N     3.0    6.3   -6.8
C     7.4    6.3    1.0
H     8.3    1.5    4.9
H     7.2    6.3    2.1
H     1.4   -5.9   -7.7
H     8.4   -5.1    0.7
I     0.3    1.7    9.7
H    -6.3   -4.9   -5.9
P     7.3   -3.5    5.8
C    -1.5    2.7   -9.5
P    -6.1    7.6   -2.0
P    -6.1   -7.2    3.3
H     8.0    3.2    5.0
H    -0.5    2.3   -9.7
C     2.5   -5.9   -7.7
I     5.5   -1.2   -8.3
H     2.8   -6.2    7.4
H    -2.0   -8.9    4.3
N     2.1   -4.7    8.7
H    -2.4    0.7   -9.8
H     4.0    6.3   -6.8
H     4.1   -9.0   -2.2
C     3.1   -9.4   -2.1
I    -1.4   -5.3    8.6
I    -1.8    9.5    3.3
H     1.2   -5.0    8.8
H     8.3   -2.1   -5.6
N    -5.9   -4.8   -6.8
H    -1.2    9.6   -3.3
H    -6.5   -7.8   -0.9
N    -1.3   -8.8    5.1
I    10.0    1.6    1.9
H     7.2    7.3    0.6
I    -7.8    5.5   -3.7
H    -2.4   -2.0    9.8
H    -6.3   -3.9   -7.2
I    -7.8   -5.6   -3.7
H     8.4    6.0    0.7
C     3.1    5.3    8.3
H    -6.0    4.2   -7.3
H    -6.0    7.9    3.1
P    -6.1    0.2    8.5
I    -1.4    5.8    8.6
H     2.9   -6.8   -7.3
H    -4.8   -9.0   -2.2
H    -4.9    6.3   -6.8
I     2.8    1.9   -9.9
H    10.1    2.4   -1.7
I    -7.8   -1.9    6.7
I     5.5   -8.7    2.2
P   -10.5    0.1    0.6
H     2.7    7.2   -7.2
H    -6.8   -7.6   -2.5
C    -1.9    9.5   -4.0
I    -4.1    9.7   -0.5
P    -1.6   -3.5   -9.8
N    -2.5    1.7  -10.1
H    -6.3    6.1   -5.9
H    -0.6    9.0   -5.6
C     3.1   -5.8    8.3
H     4.1   -5.4    8.2
H     2.9    5.3   -8.7
H    -1.7    3.7   -9.8
H     3.1    4.6    9.1
H    -3.5    2.0   -9.9
I   -10.3    2.1   -1.9
H     3.0  -10.2   -1.3
H     2.7   -9.9   -3.1
H   -10.1   -1.4   -3.3
H     2.4   -4.2    9.6
H    -9.4   -5.1    0.7
H    -0.6   -9.5    4.9
H     1.2    6.0    8.8
H    -6.1    4.9    7.4
H     7.7    2.2    7.2
H    -9.5    1.5    4.9
I    -8.7    1.8   -6.1
I     4.8    9.7   -0.5
H    -2.7   -8.2    6.5
H     4.1    5.7    8.2
H     2.9   -5.7   -8.7
H     2.1    7.1    7.9
N    -6.8   -8.3   -1.8
I     2.9    9.5   -4.6
H    10.3   -2.2    2.7
H    -6.0    9.0    1.7
H    -4.8   -5.4    8.2
N    -5.9    6.3   -6.8
N     3.0    9.9    3.6
I    -4.1    2.3    9.9
N     2.2    6.4    8.7
P    -1.6  -10.9    0.6
I    -8.7    5.4    4.3
H    -4.8    5.7    8.2
I     9.1    1.8   -6.1
H     2.7    9.8    4.6
I     2.9   -9.0    5.9
I     0.2   -9.3   -6.1
P     7.2   -7.1   -4.6
N    -1.3    9.7   -5.4
H    -9.4    6.0    0.7
H    -6.8   -3.9    7.9
H    -9.5   -2.1   -5.6
C    -2.0   -9.0    6.4
H    -9.8   -0.4   -5.5
C    -6.4    8.8    2.7
H    -1.7   -0.1   11.1
I    -4.2   -8.7   -5.7
I    -8.7   -5.7    4.3
C    -6.4    5.2   -7.7
I     4.8    2.3    9.9
C    -5.8   -9.4   -2.1
N    -2.5   -2.1   10.8
H   -10.6   -3.8    0.6
H    -0.5   -1.4   11.2
H     4.1    9.9    3.7
P    -1.6   11.2    0.6
I   -10.7   -1.6    3.3
I     7.0   -5.3   -7.2
H    -2.7   10.3   -3.9
H     7.2    2.6   -8.4
I     4.7   -8.7   -5.7
H    -9.8    3.2    5.0
I     1.1    9.2    6.7
H    -6.1   -6.2    7.4
C    -5.8    5.3    8.3
I     9.1    5.4    4.3
H     5.4    2.0   -9.9
H     6.5    8.5   -4.0
H    -1.2   -8.9    7.2
C   -10.4   -4.8    1.0
N    11.0    2.8   -1.8
I     2.8   -1.9   11.0
H    -2.4    1.8  -11.2
I     9.1   -5.7    4.3
H    -2.0    9.6   -6.2
C    -1.5   -1.1   11.5
N   -10.2    2.3    5.1
H     2.4   -0.4  -11.4
C    -6.4   -5.9   -7.7
H     3.1   -6.5    9.1
H     2.7   10.8    3.3
I     7.1    5.8   -7.2
N   -10.2   -1.4   -5.4
H    -4.8    9.9    3.7
C    -5.8   -5.8    8.3
C   -10.9   -1.5   -4.0
H    -6.0   -6.8   -7.3
H    -3.5   -1.8   11.0
H    -5.8    4.6    9.1
H    -7.8   -8.7   -1.7
H     6.5    0.7   -9.8
I    -6.1    1.9   -9.9
H    11.3    3.2   -0.9
I    -7.9   -2.1   -8.5
H    -2.4   -3.0   11.2
H    -5.9  -10.2   -1.3
H   -10.6   -4.8    2.1
H    11.0    3.5   -2.5
I     7.5   -8.9   -1.9
P    -1.6    3.8   11.1
H    -6.0    5.3   -8.7
H    -7.4    8.8    2.7
H     6.5   -2.0    9.8
H    -6.2    7.2   -7.2
H    -7.5    5.2   -7.7
H   -10.9    2.2    4.3
N    -6.8   -4.7    8.7
C    11.4   -2.3    2.7
H    -0.9   10.6   -5.5
I    10.0   -5.6   -3.7
I    10.0    5.5   -3.7
H    11.6   -0.2    3.3
P     7.3    7.6    5.8
H     6.9   -8.9    4.3
H     2.4    6.9    9.6
H    -6.2   -9.9   -3.1
H    -1.7   -8.5   -8.4
H    -6.0   -5.7   -8.7
H     2.6  -11.3    3.3
H    12.0    0.9   -1.3
N    -5.9    9.9    3.6
N     6.4    1.7  -10.1
H   -11.3    4.4    0.7
H    11.7    1.2   -3.1
H    -2.4  -10.0    6.5
H    11.8   -2.1    1.7
I    -6.0    9.5   -4.6
P   -10.5    3.9   -4.6
H     6.2   -8.2    6.5
I    10.0   -1.9    6.7
C   -10.4    6.3    1.0
H    -7.5   -5.9   -7.7
H     1.1   -1.2  -12.1
I     7.1    9.5    3.3
H   -11.3   -2.5   -4.0
H   -11.6   -0.8   -3.9
C    12.0    1.7   -2.1
C     7.4    2.7   -9.5
H     8.0   -7.9    5.0
H    -6.5   -4.2    9.6
I    -6.0   -9.0    5.9
P    11.7   -3.4   -2.0
H     5.4   -1.8   11.0
H    -1.7   -7.4   -9.8
H   -10.6    6.3    2.1
H     3.1   12.0   -1.3
N     2.1   -0.9  -12.2
I     1.1    9.0   -8.5
I    -7.9   -9.5    1.9
C     7.0    9.5   -4.0
H    11.5   -1.3    4.6
H     3.0   -2.7  -11.8
H    -6.2    9.8    4.6
I     0.3    5.4  -11.2
P    -1.6    7.6   -9.8
N    11.9   -1.2    3.6
I    -8.6    9.1   -0.8
I    -1.4   -1.5  -12.4
P   -10.5   -3.5    5.8
I     7.5   -5.3    8.6
H   -10.1    2.2    7.2
H   -11.3    5.4   -0.7
I     0.3   -5.6  -11.2
N   -11.4    5.4    0.4
H    11.8   -3.2    3.1
H   -10.9   -1.4   -6.2
H    -6.8    7.1    7.9
