         400
 sphere cut out from bulk 
I    -1.9   -0.0    0.9
I     2.9   -0.0   -0.0
H    -0.3    2.9    0.5
H    -0.3   -2.9    0.5
H    -0.0    2.1    2.1
H    -0.0   -2.1    2.1
H     2.0    2.1    0.8
H     2.0   -2.1    0.8
C     0.2    3.0    1.5
C     0.2   -3.0    1.5
N     1.7    3.0    1.2
N     1.7   -3.0    1.2
P    -4.0   -0.0   -1.3
H     2.2    3.1    2.1
H     2.2   -3.1    2.1
H     1.9    3.8    0.6
H     1.9   -3.8    0.6
H    -0.1    3.9    2.0
H    -0.1   -3.9    2.0
H    -2.8   -0.0    3.5
I    -3.8    2.7   -2.7
I    -3.8   -2.7   -2.7
C    -3.7   -0.0    4.2
I    -1.7   -0.0   -5.4
P     5.6   -0.0   -1.3
H    -4.3   -0.9    4.0
H    -4.3    0.9    4.0
I    -2.1    5.8    0.6
I    -2.1   -5.8    0.6
I     3.4    3.2    4.2
I     3.4   -3.2    4.2
I    -1.0    2.7    5.7
I    -1.0   -2.7    5.7
H    -2.7    0.8    5.7
H    -2.7   -0.8    5.7
N    -3.3   -0.0    5.6
I     3.0    5.8   -0.5
I     3.0   -5.8   -0.5
H     0.8   -0.0   -6.5
H     5.2    0.9    4.0
H     5.2   -0.9    4.0
I    -6.7   -0.0   -0.0
I     5.7    2.7   -2.7
I     5.7   -2.7   -2.7
H    -2.3    4.9    4.5
H    -2.3   -4.9    4.5
P    -2.9    2.8   -5.9
P    -2.9   -2.8   -5.9
C     5.8   -0.0    4.2
P    -3.9    5.8   -1.9
P    -3.9   -5.8   -1.9
H    -3.5    5.8    2.6
H    -3.5   -5.8    2.6
N     1.6   -0.0   -7.2
H     2.2    0.8   -7.0
H     2.2   -0.8   -7.0
H    -4.1   -0.0    6.2
H     6.7   -0.0    3.5
P     1.8    2.8    6.9
P     1.8   -2.8    6.9
I     7.6   -0.0    0.9
H    -4.5    5.0    3.7
H    -4.5   -5.0    3.7
N    -3.9    5.8    3.6
N    -3.9   -5.8    3.6
H    -7.6    2.1    0.8
H    -7.6   -2.1    0.8
I     3.1   -0.0    7.3
H     5.0    5.0    3.7
H     5.0   -5.0    3.7
C    -2.9    5.8    4.7
C    -2.9   -5.8    4.7
H    -0.1    7.8    2.0
H    -0.1   -7.8    2.0
I    -2.5    5.8   -5.0
I    -2.5   -5.8   -5.0
H     1.9    7.8    0.6
H     1.9   -7.8    0.6
I    -6.1    3.2    4.2
I    -6.1   -3.2    4.2
H    -7.4    3.1    2.1
H    -7.4   -3.1    2.1
H     5.5   -0.0    6.2
P     5.7    5.8   -1.9
P     5.7   -5.8   -1.9
H    -2.3    6.7    4.5
H    -2.3   -6.7    4.5
N     6.3   -0.0    5.6
I     3.9    2.7   -7.1
I     3.9   -2.7   -7.1
N    -7.9    3.0    1.2
N    -7.9   -3.0    1.2
H    -7.6    3.8    0.6
H    -7.6   -3.8    0.6
C     1.1   -0.0   -8.6
H    -3.4    5.8    5.6
H    -3.4   -5.8    5.6
I    -6.6    5.8   -0.5
I    -6.6   -5.8   -0.5
H    -0.3    8.8    0.5
H    -0.3   -8.8    0.5
C     0.2    8.7    1.5
C     0.2   -8.7    1.5
H     6.1    5.8    2.6
H     6.1   -5.8    2.6
H     0.5    0.9   -8.8
H     0.5   -0.9   -8.8
N     5.6    5.8    3.6
N     5.6   -5.8    3.6
H    -4.5    6.7    3.7
H    -4.5   -6.7    3.7
N     1.7    8.6    1.2
N     1.7   -8.6    1.2
H     6.9    0.8    5.7
H     6.9   -0.8    5.7
H     2.2    8.6    2.1
H     2.2   -8.6    2.1
H     5.0    6.7    3.7
H     5.0   -6.7    3.7
I    -1.3    3.2   -8.5
I    -1.3   -3.2   -8.5
H     1.4    5.8   -7.1
H     1.4   -5.8   -7.1
P     6.7    2.8   -5.9
P     6.7   -2.8   -5.9
H     2.0   -0.0   -9.2
I    -5.7    2.7   -7.1
I    -5.7   -2.7   -7.1
I     7.5    5.8    0.6
I     7.5   -5.8    0.6
I     7.9   -0.0   -5.4
H     9.2    2.9    0.5
H     9.2   -2.9    0.5
H     2.0    9.5    0.8
H     2.0   -9.5    0.8
H    -0.0    9.6    2.1
H    -0.0   -9.6    2.1
I    -6.5   -0.0    7.3
H     7.3    4.9    4.5
H     7.3   -4.9    4.5
H     2.5    4.9   -8.2
H     2.5   -4.9   -8.2
C    -9.4    3.0    1.5
C    -9.4   -3.0    1.5
I     2.3    5.8    7.8
I     2.3   -5.8    7.8
H     9.6    2.1    2.1
H     9.6   -2.1    2.1
C     6.7    5.8    4.7
C     6.7   -5.8    4.7
H    -9.6    2.1    2.1
H    -9.6   -2.1    2.1
I     3.4    8.5    4.2
I     3.4   -8.5    4.2
I    -3.8    8.9   -2.7
I    -3.8   -8.9   -2.7
C     1.9    5.8   -8.1
C     1.9   -5.8   -8.1
H     6.2    5.8    5.6
H     6.2   -5.8    5.6
H    -7.4    0.8   -7.0
H    -7.4   -0.8   -7.0
C     9.8    3.0    1.5
C     9.8   -3.0    1.5
H    -9.9    2.9    0.5
H    -9.9   -2.9    0.5
H     0.3    5.0   -9.1
H     0.3   -5.0   -9.1
H     9.5    3.9    2.0
H     9.5   -3.9    2.0
I     7.1    5.8   -5.0
I     7.1   -5.8   -5.0
I     0.9    2.7   10.1
I     0.9   -2.7   10.1
H    -9.7    3.9    2.0
H    -9.7   -3.9    2.0
I    -1.0    9.0    5.7
I    -1.0   -9.0    5.7
I     8.6    2.7    5.7
I     8.6   -2.7    5.7
P    -7.7    2.8    6.9
P    -7.7   -2.8    6.9
N    -8.0   -0.0   -7.2
N     0.9    5.8   -9.2
N     0.9   -5.8   -9.2
H     7.3    6.7    4.5
H     7.3   -6.7    4.5
H     2.5    6.7   -8.2
H     2.5   -6.7   -8.2
I     5.7    8.9   -2.7
I     5.7   -8.9   -2.7
H    -7.6    7.8    0.6
H    -7.6   -7.8    0.6
H    -8.8   -0.0   -6.5
P    -2.9    8.8   -5.9
P    -2.9   -8.8   -5.9
H     0.3    6.7   -9.1
H     0.3   -6.7   -9.1
I    -6.1    8.5    4.2
I    -6.1   -8.5    4.2
P     1.8    8.8    6.9
P     1.8   -8.8    6.9
H    -2.5    3.1  -10.7
H    -2.5   -3.1  -10.7
P     0.8   -0.0   11.4
H    -7.4    8.6    2.1
H    -7.4   -8.6    2.1
I   -11.5   -0.0    0.9
N    11.2    3.0    1.2
N    11.2   -3.0    1.2
H     1.3    5.8  -10.1
H     1.3   -5.8  -10.1
H    11.5    2.1    0.8
H    11.5   -2.1    0.8
N    -7.9    8.6    1.2
N    -7.9   -8.6    1.2
H    -4.8   -2.1  -10.6
H    -4.8    2.1  -10.6
I    -1.9   11.6    0.9
I    -1.9  -11.6    0.9
H     4.8   -2.1  -10.6
H     4.8    2.1  -10.6
H    -7.0    4.9   -8.2
H    -7.0   -4.9   -8.2
H    -7.6   -0.0   -9.2
I     2.9   11.6   -0.0
I     2.9  -11.6   -0.0
I     3.9    9.0   -7.1
I     3.9   -9.0   -7.1
C    -8.5   -0.0   -8.6
I    -1.3    8.5   -8.5
I    -1.3   -8.5   -8.5
H    11.5    3.8    0.6
H    11.5   -3.8    0.6
I    -7.3    5.8    7.8
I    -7.3   -5.8    7.8
H    -7.6    9.5    0.8
H    -7.6   -9.5    0.8
I     2.9   -0.0  -11.9
H    10.3   -0.0   -6.5
H    -4.3   10.7    4.0
H    -4.3  -10.7    4.0
I   -10.5    2.7    5.7
I   -10.5   -2.7    5.7
H    -8.1    5.8   -7.1
H    -8.1   -5.8   -7.1
I     8.3    3.2   -8.5
I     8.3   -3.2   -8.5
N    -3.1    3.0  -11.5
N    -3.1   -3.0  -11.5
P     0.9    5.8   10.8
P     0.9   -5.8   10.8
H    11.8    3.1    2.1
H    11.8   -3.1    2.1
P    -4.0   11.6   -1.3
P    -4.0  -11.6   -1.3
H     4.7   -3.9  -10.8
H     4.7    3.9  -10.8
H     9.5    7.8    2.0
H     9.5   -7.8    2.0
H    -4.8   -3.9  -10.8
H    -4.8    3.9  -10.8
I    12.5   -0.0   -0.0
H    -2.8   11.6    3.5
H    -2.8  -11.6    3.5
I   -11.3   -0.0   -5.4
C    -4.6   -3.0  -11.3
C    -4.6    3.0  -11.3
P     6.7    8.8   -5.9
P     6.7   -8.8   -5.9
H    -2.8    2.1  -12.0
H    -2.8   -2.1  -12.0
H    -2.7   10.8    5.7
H    -2.7  -10.8    5.7
H    -9.7    7.8    2.0
H    -9.7   -7.8    2.0
C    -7.6    5.8   -8.1
C    -7.6   -5.8   -8.1
H     5.2   10.7    4.0
H     5.2  -10.7    4.0
H    -9.1    0.9   -8.8
H    -9.1   -0.9   -8.8
C     5.0   -3.0  -11.3
C     5.0    3.0  -11.3
H    -7.0    6.7   -8.2
H    -7.0   -6.7   -8.2
H     9.2    8.8    0.5
H     9.2   -8.8    0.5
I    -5.7    9.0   -7.1
I    -5.7   -9.0   -7.1
C    -9.4    8.7    1.5
C    -9.4   -8.7    1.5
I    -1.9   -0.0   12.7
H   -12.4   -0.0    3.5
I    -1.8   -0.0  -12.8
C    -3.7   11.6    4.2
C    -3.7  -11.6    4.2
I    -1.7   11.6   -5.4
I    -1.7  -11.6   -5.4
P     5.6   11.6   -1.3
P     5.6  -11.6   -1.3
H    -2.8    3.8  -12.1
H    -2.8   -3.8  -12.1
I   -11.7    5.8    0.6
I   -11.7   -5.8    0.6
H     2.2   10.8   -7.0
H     2.2  -10.8   -7.0
H     7.0    3.1  -10.7
H     7.0   -3.1  -10.7
C     9.8    8.7    1.5
C     9.8   -8.7    1.5
H    -9.9    8.8    0.5
H    -9.9   -8.8    0.5
N    11.1   -0.0   -7.2
N    -3.3   11.6    5.6
N    -3.3  -11.6    5.6
H     4.5   -2.9  -12.2
H     4.5    2.9  -12.2
H     0.8   11.6   -6.5
H     0.8  -11.6   -6.5
H    10.1    0.9   -8.8
H    10.1   -0.9   -8.8
I    -6.7   11.6   -0.0
I    -6.7  -11.6   -0.0
I     0.9    8.9   10.1
I     0.9   -8.9   10.1
H   -12.2    0.8    5.7
H   -12.2   -0.8    5.7
H    -5.1   -2.9  -12.2
H    -5.1    2.9  -12.2
I    -8.7    2.7   10.1
I    -8.7   -2.7   10.1
N     6.5    3.0  -11.5
N     6.5   -3.0  -11.5
P    -7.7    8.8    6.9
P    -7.7   -8.8    6.9
P   -13.5   -0.0   -1.3
H   -11.8    4.9    4.5
H   -11.8   -4.9    4.5
I    -6.7   -0.0  -11.9
P    11.4    2.8    6.9
P    11.4   -2.8    6.9
I     8.6    9.0    5.7
I     8.6   -9.0    5.7
C     5.8   11.6    4.2
C     5.8  -11.6    4.2
H     9.6    9.6    2.1
H     9.6   -9.6    2.1
H    -9.6    9.6    2.1
H    -9.6   -9.6    2.1
C    10.7   -0.0   -8.6
H    11.7    0.8   -7.0
H    11.7   -0.8   -7.0
I    -1.8    5.8   12.3
I    -1.8   -5.8   12.3
N     1.6   11.6   -7.2
N     1.6  -11.6   -7.2
I     2.7    5.8  -12.2
I     2.7   -5.8  -12.2
H    -4.1   11.6    6.2
H    -4.1  -11.6    6.2
H    -4.3   12.5    4.0
H    -4.3  -12.5    4.0
I    12.6    5.8   -0.5
I    12.6   -5.8   -0.5
H     0.5   10.7   -8.8
H     0.5  -10.7   -8.8
N    -8.7    5.8   -9.2
N    -8.7   -5.8   -9.2
H    -0.0   13.7    2.1
H    -0.0  -13.7    2.1
H     6.7   11.6    3.5
H     6.7  -11.6    3.5
H    -9.3    5.0   -9.1
H    -9.3   -5.0   -9.1
H    -2.5    8.6  -10.7
H    -2.5   -8.6  -10.7
H    11.5    7.8    0.6
H    11.5   -7.8    0.6
H     2.0   13.8    0.8
H     2.0  -13.8    0.8
C   -13.3   -0.0    4.2
I     2.8   -0.0   13.7
I     7.6   11.6    0.9
I     7.6  -11.6    0.9
I   -13.4    2.7   -2.7
I   -13.4   -2.7   -2.7
H     6.8    2.1  -12.0
H     6.8   -2.1  -12.0
H    -2.9    2.1   13.5
H    -2.9   -2.1   13.5
N   -12.8   -0.0    5.6
H    -2.7   12.5    5.7
H    -2.7  -12.5    5.7
H     6.9   10.8    5.7
H     6.9  -10.8    5.7
I    13.0    3.2    4.2
I    13.0   -3.2    4.2
P   -12.5    2.8   -5.9
P   -12.5   -2.8   -5.9
