         400
 sphere cut out from bulk 
P     0.1   -0.0   -1.2
I    -2.4    0.2    0.8
I     1.1   -2.2    0.9
I     1.4    2.0    0.8
P     0.0    0.1    3.0
I    -1.1    2.1   -3.3
I     2.5   -0.1   -3.4
I    -1.2   -2.1   -3.4
H     0.6    4.5   -0.5
H     0.0   -4.2    2.0
H     3.6   -2.9   -0.4
H    -4.3   -1.6   -0.4
H    -3.9    2.0    1.6
H    -0.7    4.4   -1.7
H     3.7    2.6    1.6
C    -0.2    5.0   -0.9
H    -3.6   -2.5   -2.6
H    -3.9   -3.4   -0.4
H     4.9   -1.6   -0.4
H     4.1   -1.9   -2.7
H    -0.9    5.3   -0.2
C    -4.6   -2.6   -0.8
H    -0.9   -4.0    3.4
C     4.7   -2.6   -0.8
P     0.1    0.1   -5.5
N    -0.5   -4.7    2.7
I    -1.4   -2.1    5.0
I    -1.1    2.1    5.1
I     2.4   -0.2    5.1
N    -4.6    2.7    2.0
H    -1.4   -5.1    2.2
N    -4.6   -2.6   -2.3
N     4.7    2.7    2.0
H    -4.2    3.7    1.6
N     4.7   -2.6   -2.3
H     5.3    2.0    1.6
H    -0.2   -4.4   -4.2
H     4.4    1.7    3.8
H    -3.6    3.0    3.8
H    -5.2   -1.9   -2.7
H     4.4   -3.6   -2.6
H    -5.5    2.6    1.6
H    -5.6   -2.9   -0.4
H     5.4   -3.4   -0.4
C    -4.6    2.7    3.5
H    -4.9    1.7    3.8
C     4.7    2.7    3.5
H     3.9    3.4    3.8
H     5.0    3.7    1.6
N     0.3    6.3   -1.5
H     1.1    6.0   -2.2
H    -3.6    3.0   -4.6
H    -4.9   -3.6   -2.6
H     4.4    1.8   -4.6
H     1.1   -5.4    3.8
C     0.2   -5.8    3.4
H     5.7   -2.5   -2.6
I    -3.3   -5.9    0.9
H     1.1   -5.4   -4.1
N     0.1   -5.3   -4.5
I     6.9    0.2    0.8
I    -3.5    5.9    0.9
H    -4.9    1.8   -4.6
H     0.7    6.9   -0.8
H     4.0    3.5   -4.6
H     0.5   -6.5    2.6
H    -0.4    6.8   -2.1
P    -0.0   -0.0    7.2
C    -4.6    2.8   -5.0
H    -0.5   -6.0   -4.1
H     4.0   -2.0    5.8
H    -3.7   -2.5    5.8
C     4.7    2.8   -5.0
H    -5.4    3.4    3.8
H     5.6    3.0    3.8
H    -0.4   -6.2    4.1
I     3.5   -5.8   -3.3
I    -6.8   -0.1   -3.4
I     3.5    6.1   -3.3
H    -5.3    3.5   -4.6
H     0.9   -4.6   -6.3
H     5.7    3.0   -4.6
I     1.2   -2.0   -7.6
I    -2.4    0.2   -7.5
H    -0.8    4.7    6.3
I     1.3    2.2   -7.5
C     0.1   -5.3   -6.0
H     0.9    5.0    6.3
H     4.3   -3.6    5.8
H    -0.8   -5.0   -6.4
I    -7.8    2.0    0.8
H    -5.3   -2.0    5.8
H    -4.0    2.0   -6.8
N     4.6   -2.7    6.2
N    -4.7   -2.7    6.2
H     3.7    2.6   -6.8
I     5.8    5.9    0.9
I     2.3   -8.0    0.8
N    -4.6    2.8   -6.5
H     5.6   -2.5    5.8
N     4.7    2.8   -6.5
I     2.2    8.1    0.8
I     6.0   -5.9    0.9
H    -5.0   -3.6    5.8
I    -8.2   -2.2    0.9
I     3.4    6.0    5.1
I    -6.9   -0.2    5.1
C    -0.0    5.3    6.7
I     3.6   -5.9    5.1
I    -2.1   -7.9   -3.3
H    -4.2    3.7   -6.8
I    -5.8   -5.8   -3.3
H     5.3    2.0   -6.8
H     0.4   -6.3   -6.3
I     8.0   -2.1   -3.4
H    -0.2    6.4    6.4
I    -5.8    6.1   -3.3
I     8.2    2.1   -3.3
I    -2.1    8.2   -3.3
H    -5.5    2.6   -6.8
P    -4.5   -8.0   -1.2
H     5.1    3.7   -6.8
P    -9.2   -0.0   -1.2
H     0.8   -9.2   -0.8
H     3.6   -3.1    8.0
P     4.8   -8.0   -1.2
H    -4.4   -1.8    8.1
C     4.6   -2.8    7.7
C    -4.7   -2.8    7.7
P     9.3   -0.0   -1.2
P    -4.6    8.2   -1.2
H     0.4    4.5   -8.3
P     4.7    8.2   -1.2
I     1.1   -2.1    9.3
H    -3.9   -3.5    8.0
H    -0.3   -9.3   -2.1
H     4.8   -1.8    8.1
I     7.9   -2.1    5.0
H     0.3    4.4    8.5
I    -2.5    0.1    9.3
I     1.2    2.1    9.3
H     7.9   -5.1    2.2
P     0.0    0.1   -9.7
I    -5.7   -5.9    5.1
P    -9.2    0.1    3.0
I    -2.2    8.0    5.1
P     4.6    8.0    3.0
H    -8.6    4.5   -0.5
N    -0.0    5.3    8.2
P    -4.7    8.0    3.0
P     9.3    0.1    3.0
P    -4.6   -8.1    3.0
I     8.1    2.1    5.1
P     4.7   -8.1    3.0
I    -5.9    6.0    5.1
H     8.6    4.4   -1.7
I    -2.2   -8.2    5.1
H     8.4    5.3   -0.2
H    -4.3   -1.6   -8.8
H     8.4   -4.0    3.4
H     0.4    9.6    2.6
H     3.7   -2.9   -8.8
N     0.4   -9.9   -1.5
H    -0.9    5.6   -8.3
I    -3.3    6.0   -7.5
I    -3.3   -5.9   -7.5
H    -3.8   -3.3   -8.8
H     4.9   -1.6   -8.8
H    -1.0    5.5    8.6
N     0.1    5.4   -8.6
I     6.9    0.2   -7.5
H     5.4   -3.5    8.0
N     8.7   -4.7    2.7
H    -5.6   -3.1    8.0
H    -9.2   -4.2    2.0
H     0.7    6.2   -8.3
H    -8.1    6.0   -2.2
H     1.2  -10.1   -2.2
H     9.3   -4.2    2.0
C     9.1    5.0   -0.9
H    -8.1   -5.4    3.8
H     0.6    6.0    8.5
C    -4.6   -2.6   -9.1
C     4.7   -2.6   -9.1
I    10.4   -2.2    0.9
I    -7.0   -8.0    0.8
H    -8.2   -5.4   -4.1
P    -4.5   -8.0   -5.4
H    -0.4    9.9    4.1
P    -9.2    0.1   -5.5
C    -9.5    5.0   -0.9
I    -3.4   10.2    0.9
P    -4.6    8.1   -5.4
P     4.8   -8.0   -5.4
I    -3.4  -10.2    0.9
H    -5.6   -2.9   -8.8
I    -7.1    8.1    0.8
P     9.3    0.1   -5.5
P     4.7    8.1   -5.4
C     0.2   10.3    3.4
H     9.0   -4.4   -4.2
H    -0.9  -10.8   -0.2
H     9.9    4.5   -0.5
H     5.5   -3.3   -8.8
H     3.6    2.5   10.0
I    10.7    2.0    0.8
H    -0.6   10.1   -4.1
H    -4.1    1.9   10.0
H    -8.5    6.9   -0.8
H    -9.9    4.4   -1.7
N    -8.9    6.3   -1.5
I   -10.4    2.1   -3.3
I     3.5  -10.0   -3.3
C    -0.1  -11.1   -0.9
I     2.3    8.0   -7.5
I    -7.9    2.2   -7.5
I     7.2   -7.9   -3.3
N    -9.8   -4.7    2.7
I   -10.5   -2.1   -3.4
I    -8.1   -2.0   -7.6
I     5.9   -5.9   -7.5
C    -9.0   -5.8    3.4
H    -8.8   -6.5    2.6
H    -9.5   -4.4   -4.2
I     6.0    6.0   -7.5
I     2.3   -8.2   -7.5
H    -1.4   11.0    2.2
I     3.4   10.3   -3.3
H     8.9    6.8   -2.1
P    -0.0   -0.1   11.4
I     7.2    8.2   -3.3
H     8.8   -6.0   -4.1
H     5.2    1.9   10.0
H    -8.3   -4.6   -6.3
H    -4.3    3.6   10.0
H     1.1   10.8    3.8
H   -10.2   -4.0    3.4
H   -10.2    5.3   -0.2
N    -9.2   -5.3   -4.5
H     1.0   10.7   -4.1
I     6.8    0.1    9.3
C     0.1    5.5  -10.1
I    -3.4    5.8    9.4
H     0.8   -4.7   10.5
H     8.4    4.7    6.3
N     9.6    6.3   -1.5
H    -8.3    5.0    6.3
H    -0.7    4.8  -10.5
C     9.5   -5.8    3.4
H     8.9   -6.2    4.1
N     4.6    2.6   10.4
H    -0.1   -9.8    6.4
H    -0.9   -5.1   10.4
I    -3.4   -6.1    9.3
N    -4.7    2.6   10.4
N     9.4   -5.3   -4.5
P     9.2   -0.0    7.2
H     0.7  -11.7   -0.5
I   -11.7    0.2    0.8
H     8.4   -5.0   -6.4
H     0.3    9.8   -6.3
P    -4.6    8.0    7.2
H     1.0    5.1  -10.5
P     4.6    8.0    7.2
H     5.0    3.6   10.0
H    -5.6    2.5   10.0
N    -0.6   11.4    2.7
N     0.1   10.8   -4.5
P    -9.3   -0.0    7.2
I     5.8  -10.2    0.9
I   -10.4    2.1    5.1
P    -4.6   -8.1    7.2
I     7.0    8.0    5.1
I     5.9   10.2    0.9
P     4.7   -8.1    7.2
H    -3.6   -2.4  -11.0
H     4.1   -1.9  -11.0
N    -4.6   -2.6  -10.6
H    -0.6  -11.7   -1.7
I     3.4  -10.1    5.1
N     4.7   -2.6  -10.6
I   -10.6   -2.1    5.0
I     3.5   10.2    5.1
I     7.1   -8.2    5.1
H    -9.7    6.8   -2.1
I    -1.0    2.2  -11.7
H   -10.6   -5.1    2.2
I     2.5   -0.1  -11.7
I    -5.8  -10.0   -3.3
H     9.8   -6.5    2.6
I    -1.3   -2.0  -11.8
C     0.1   -5.4   10.8
H    -0.0   11.9    2.0
C    -9.1   -5.3   -6.0
H    10.0    6.9   -0.8
H    -9.6   -6.2    4.1
H    -9.8   -6.0   -4.1
H    10.4    6.0   -2.2
I    11.8   -0.1   -3.4
H    -5.2   -1.9  -11.0
I    -5.8   10.3   -3.3
H     0.3   -6.4   10.5
H    10.4   -5.4    3.8
H    -0.1    6.5  -10.5
H     4.4   -3.5  -11.0
C     9.4   -5.3   -6.0
I     2.2    7.8    9.3
H    10.3   -5.4   -4.1
C     0.1   10.8   -6.0
I    -8.0    2.1    9.3
H    -0.3   11.8   -4.2
I     5.9    5.8    9.4
I    -8.2   -2.1    9.3
H    -4.9   -3.5  -11.0
H    -8.5   -9.2   -0.8
I     5.8   -6.1    9.3
H    -0.9   12.1    3.4
C     9.2    5.3    6.7
H     5.7   -2.4  -11.0
H    -8.9   -6.3   -6.3
C    -9.3    5.3    6.7
I     2.3   -8.3    9.3
C     0.0  -10.8    6.7
I    11.7   -0.2    5.1
I    -5.9  -10.1    5.1
I    -5.8   10.2    5.1
H     9.1    6.4    6.4
H   -10.1    4.7    6.3
H    10.2   -4.6   -6.3
H     1.0  -11.2    6.3
H    -0.9   11.2   -6.4
H   -10.1   -5.0   -6.4
H    -8.9    4.5   -8.3
H     0.8  -10.0   -8.3
I    -7.0    8.0   -7.5
C     4.6    2.6   11.9
H    10.2    5.0    6.3
C    -4.7    2.6   11.9
I    -3.2  -10.2   -7.5
H     4.3    1.6   12.2
H     8.4    5.6   -8.3
H    -9.4    6.4    6.4
I    -6.9   -8.2   -7.5
H    -3.7    2.9   12.2
I    -3.4   10.2   -7.5
H    -0.8  -11.4    6.3
I    10.5   -2.0   -7.6
H     8.9   -9.3   -2.1
H    -9.0    4.4    8.5
H     8.3    5.5    8.6
H    -8.1  -10.1   -2.2
H     9.6   -6.3   -6.3
H     0.9   11.5   -6.3
I    10.6    2.2   -7.5
H    12.9   -2.9   -0.4
H    -4.2  -12.5    1.6
H     0.7  -10.1    8.5
H     3.9    3.4   12.2
H    -5.0    1.6   12.2
H    -8.8    9.6    2.6
P    -4.5   -8.0   -9.6
N    -8.9   -9.9   -1.5
H    13.0    2.6    1.6
P    -9.2    0.1   -9.7
H    -4.0   12.8   -0.4
H   -12.9   -2.5   -2.6
P    -4.5    8.1   -9.6
P     4.8   -8.0   -9.6
H    -8.6    6.2   -8.3
H    -0.8  -10.5   -8.3
P     9.3    0.1   -9.7
N     9.3    5.3    8.2
H    -0.3   -4.5   12.7
N     0.0   -5.4   12.3
H   -13.2    2.0    1.6
P     4.7    8.1   -9.6
N    -9.3    5.3    8.2
H     9.7    4.5   -8.3
H     4.3   12.6   -2.6
H     5.1  -12.5    1.6
H     9.6    4.4    8.5
I    -6.8   -0.1  -11.7
I     3.7   -5.8  -11.7
H    -9.6   -9.3   -2.1
N     0.0  -10.8    8.2
H    -8.6    6.0    8.5
H   -13.2   -3.4   -0.4
I     3.5    6.1  -11.7
I     2.4   -0.3   13.5
I    -1.2    2.0   13.5
H    -0.9  -10.6    8.6
H    10.1   -9.2   -0.8
H     7.8   11.0    2.2
I    -1.3   -2.3   13.5
H     8.4  -10.8   -0.2
H   -13.6   -1.6   -0.4
H     3.6   13.2   -0.4
H     5.6    2.9   12.2
N    -9.2    5.4   -8.6
N     0.1  -10.7   -8.6
