         400
 sphere cut out from bulk 
I     1.0    0.2   -1.3
P     1.0   -2.1    1.1
P    -1.5    2.1   -0.2
I    -1.5   -0.2    2.2
I     1.0    3.6    1.3
I    -1.5   -3.7   -0.2
P     3.4    2.1   -0.3
I     3.4   -0.2    2.2
I    -3.9    0.1   -1.3
H     0.1    1.3   -4.4
P    -4.0   -2.1    1.1
H     1.8   -3.7   -2.5
H     0.4   -3.4   -3.4
H    -1.5   -0.2    4.6
I    -1.5    3.6   -2.9
H     1.9    1.1   -4.3
I     3.4   -3.6   -0.4
C     1.1    1.5   -4.9
N     1.3   -3.9   -3.3
I     1.0   -3.6    3.8
H    -3.8    0.1   -3.7
I    -3.9    3.7    1.1
H     2.8    3.4    3.3
H    -0.7    5.1    2.5
H     1.9   -3.6   -4.1
I     3.5    3.6   -3.0
N    -1.5   -0.1    5.6
H    -2.9   -0.5   -5.1
H     1.2    2.5   -5.2
H    -0.7    0.4    5.9
I     5.9    0.1   -1.3
H    -2.9   -4.2   -3.2
H     0.9   -0.3   -6.0
N    -3.8    0.0   -4.8
I    -1.2   -2.2   -5.6
H    -2.2    4.0    4.1
H     0.5   -5.7   -2.5
H    -2.9    1.9   -5.1
H    -0.6   -2.0    5.9
P     5.8   -2.1    1.1
N     1.0    0.7   -6.2
H    -2.4    0.4    5.9
H    -0.8   -5.4    3.3
H     2.6   -2.6    5.2
C     1.0   -5.4   -3.4
N     3.2    3.7    4.2
H     4.0   -0.5    5.1
H    -3.9   -5.0   -1.9
N    -1.3    5.6    3.1
H     2.6    3.5    5.0
C    -1.5   -1.5    6.3
I    -4.0   -3.7    3.8
H     2.5   -0.3    6.2
H    -2.4   -2.0    5.9
H    -2.2    5.8    2.5
P    -6.4    2.1   -0.3
I    -6.4   -0.2    2.2
H     0.4    6.3   -2.5
H     4.1    3.2    4.3
C    -3.8   -4.8   -2.9
C    -3.8    1.4   -5.4
C    -1.7    4.9    4.4
I     0.9    2.2    6.4
H    -4.6   -0.6   -5.1
H     0.2    1.0   -6.8
H    -0.8    4.8    4.9
I     3.5   -2.3   -5.5
H    -2.1   -6.1    2.5
I     5.9    3.7    1.1
C     3.5   -0.8    6.1
H    -3.1    5.3   -3.4
H     1.9    0.8   -6.8
H     0.5   -5.6   -4.3
H     6.0    0.1   -3.7
H     2.0   -5.9   -3.4
H    -4.7   -4.2   -3.3
N    -1.2   -6.3    3.1
H     1.9    6.1   -3.4
H    -4.7    1.9   -5.1
N     3.3   -2.3    6.0
H     5.2   -0.6   -5.1
H    -0.6   -6.9    2.5
H     5.1   -4.2   -3.3
I    -6.4   -3.6   -0.4
H    -0.9    6.6    3.3
H     5.1    1.9   -5.1
C     0.9    6.6   -3.4
H     2.5    5.7    4.1
C     3.5    5.2    4.2
H     4.1    5.4    3.3
H    -1.5   -1.4    7.4
H    -3.8    1.2   -6.5
H     0.3    6.4   -4.3
N     6.0    0.0   -4.8
H     4.1   -2.8    5.9
I    -4.0    2.2    6.3
H    -5.8   -0.5    5.1
H    -2.4    5.5    4.9
H    -5.7    3.2    4.3
I     5.8   -3.7    3.8
I    -6.4    3.6   -3.0
H     2.8   -2.6    6.9
H     2.6   -6.3    4.1
H    -4.7    5.3   -3.5
H     5.9   -5.0   -1.9
N    -3.9    5.9   -3.7
H    -3.0   -6.6   -3.4
N    -3.8   -6.0   -3.7
H     4.1   -0.6    6.9
H     5.1    5.3   -3.5
C     6.0   -4.8   -2.9
C     6.0    1.4   -5.4
H    -4.0    7.0   -1.9
H    -2.3   -6.4    4.9
C    -1.6   -7.0    4.4
H     4.2   -6.5    3.3
I    -1.6    8.3   -0.2
H    -3.8   -5.9   -4.7
H     4.0    5.5    5.1
H    -7.1    3.4    3.3
I     1.1   -8.4    1.3
H    -5.7    5.4    3.3
H     6.9   -0.5   -5.1
I     8.3   -0.2    2.2
H    -3.9    6.0   -4.7
P     8.3    2.1   -0.2
H    -5.7   -2.8    5.9
N    -6.6    3.7    4.2
H     6.9   -4.2   -3.2
I    -6.3   -2.3   -5.5
I    -1.4    2.4   -8.2
C     3.6   -6.8    4.2
C    -3.9    7.2   -2.9
H    -0.7   -7.2    4.9
H     6.9    1.9   -5.1
N     1.2    8.0   -3.3
H    -4.6   -6.6   -3.5
C    -6.3   -0.8    6.1
I     5.8    2.2    6.3
H     1.7    8.3   -2.5
H     6.0    1.2   -6.5
I    -8.8    0.2   -1.3
I    -1.3   -8.4   -2.9
H    -3.0    7.8   -3.2
H    -5.7   -0.6    6.9
I     3.3    8.4   -0.4
H    -7.9    1.1   -4.3
I     8.3   -3.7   -0.2
H     5.2   -6.6   -3.5
H    -8.0   -3.7   -2.5
N     5.9    5.9   -3.7
P    -8.9   -2.1    1.1
I     0.8    8.3    3.8
H     4.1   -6.5    5.1
C    -6.3    5.2    4.2
N    -6.6   -2.3    6.0
P    -1.3   -3.8   -8.3
I    -3.8   -8.3    1.1
H    -5.6   -6.5    3.3
H    -2.1   -8.0    4.1
I     3.5    2.4   -8.2
H     0.3    8.6   -3.4
H     6.7    5.3   -3.4
H    -7.2   -2.6    5.2
I     1.2   -5.7   -7.2
N     6.0   -6.0   -3.7
H     5.8    7.0   -1.9
I     1.1   -2.6    9.0
H    -7.2    3.5    5.0
H     8.3   -0.2    4.6
H    -5.8    5.5    5.1
H     1.8    8.4   -4.1
H     7.5    0.4    5.9
H     7.6    4.0    4.1
I     3.6   -8.4   -3.0
I     8.4    3.6   -2.9
H    -7.3   -0.3    6.2
I     1.1    6.2   -7.2
H     2.9   -8.5    3.3
I    -8.8    3.6    1.3
H    -7.9   -3.6   -4.1
H     6.0   -5.9   -4.7
H     7.4   -2.0    5.9
H     5.9    6.0   -4.7
H    -4.8    7.8   -3.3
C     5.9    7.2   -2.9
H     5.0    7.8   -3.3
P     3.6   -3.8   -8.2
N     3.3   -8.2    4.2
P     0.9    3.7    9.1
I    -3.7   -5.7   -7.2
H     7.6    5.8    2.5
I    -1.5    5.6    8.0
N    -8.5   -3.9   -3.3
P    -1.4   -9.9   -0.2
I    -4.1    8.3    3.8
P     0.8    9.9    1.1
I     1.2   -2.3   -9.7
H    -5.7   -6.5    5.1
N     8.3   -0.1    5.6
C    -6.2   -6.8    4.2
H     6.8   -6.6   -3.4
H    -7.3    5.7    4.1
C    -8.8    1.5   -4.9
I    -3.9   -2.5    9.1
H    -7.0   -2.6    6.9
H     7.7   -6.1    2.5
H     2.7   -8.5    5.0
I    -3.8    6.2   -7.2
I    -8.9   -3.6    3.8
I     6.0   -8.3    1.1
I    -1.4   -6.3    8.0
H    -7.2   -6.3    4.1
H    -7.8   -5.9   -3.4
H    -8.6    2.5   -5.2
I     3.4    5.6    8.0
P     1.1    4.0   -9.6
C     8.1    4.9    4.4
H    -7.9    0.8   -6.8
P     3.5   -9.8   -0.3
C     8.3   -1.5    6.3
H     7.4    5.5    4.9
I     8.6   -2.2   -5.6
P    -4.0    3.6    9.0
H    -9.4   -3.4   -3.4
H    -7.9    6.1   -3.4
I    -3.7   -2.3   -9.6
I    -6.3    2.4   -8.2
N     8.5    5.6    3.1
H     4.2   -8.8    4.3
I    -6.6    8.4   -0.4
P    -4.1    9.8    1.1
H    -9.7    1.3   -4.4
I    -1.5    2.1   10.4
I     5.7    8.3    3.8
H     9.1    5.1    2.5
I     3.5   -6.3    8.0
H     6.8    7.8   -3.2
H    -9.0   -0.3   -6.0
N    -8.8    0.7   -6.2
C    -8.8   -5.4   -3.4
H     1.3   -9.4   -5.2
I    -6.2   -8.4   -3.0
I    10.8    0.2   -1.3
H     9.1    0.4    5.9
H     9.9    1.3   -4.4
P    -6.2   -3.8   -8.2
I     6.1   -5.7   -7.2
P    10.8   -2.1    1.1
H     2.5    9.4    5.2
H     9.0   -5.4    3.3
H     7.5   -6.4    4.9
P    -3.9    3.9   -9.6
N     8.6   -6.3    3.1
H     9.2   -2.0    5.9
I     5.9   -2.5    9.1
I    -8.9    2.2    6.4
H     8.3   -1.4    7.4
I     3.4    2.1   10.4
P    -1.4   -4.1   10.3
I     6.0    6.2   -7.2
H    -9.3   -5.7   -2.5
H    -5.6   -8.8    4.3
N    -6.5   -8.2    4.2
H    10.2   -3.4   -3.4
I    -1.3    9.8   -5.6
H     9.0    4.8    4.9
P     5.8    3.6    9.0
P     5.7    9.8    1.1
H    -1.4   -1.1  -11.3
I    10.8    3.6    1.3
P   -11.3    2.1   -0.2
H    -6.9   -8.5    3.3
H     0.2  -10.6   -4.4
I   -11.3   -0.2    2.2
C    -8.9    6.6   -3.4
H     8.9    6.6    3.3
I     6.1   -2.3   -9.6
H     4.0    9.1    5.9
H    -0.7    9.9    5.9
H    -2.8  -10.0   -5.1
H    -9.5    6.3   -2.5
C     1.2  -10.5   -4.9
I     3.4    9.7   -5.5
P    -6.3   -9.8   -0.3
I     8.2    8.3   -0.2
C     8.2   -7.0    4.4
I     1.1   -9.8    6.4
H    -9.3   -5.6   -4.3
P     3.5   -4.1   10.4
I    -6.4    5.6    8.0
P    -1.4    8.2   -8.3
H     9.3   -6.9    2.5
H    -9.6    1.0   -6.8
N     3.1    9.7    6.0
H    -8.1    8.3   -2.5
H     2.0  -10.8   -4.3
H    -2.5    9.9    5.9
H     7.8   -8.0    4.1
H     0.1    0.8   11.8
I   -11.3   -3.7   -0.2
I     1.1  -11.8   -1.3
H   -10.5    5.1    2.5
H     2.7    9.4    6.9
P     6.0    3.9   -9.6
I    10.8   -3.6    3.8
H    10.3   -5.7   -2.5
I    -6.3   -6.3    8.0
I     8.4    2.4   -8.2
H     1.7    0.6   11.9
C    10.9    1.5   -4.9
H   -10.5    0.4    5.9
I    -1.6   11.8    2.2
P     3.5    8.1   -8.2
I    -8.7   -8.4    1.3
H    10.0    1.0   -6.8
H    -7.1   -8.5    5.0
H    -9.5    6.4   -4.3
H   -10.4   -2.0    5.9
I   -11.3    3.6   -2.9
I    -1.4    5.9  -10.6
H    10.2    6.3   -2.5
H    -4.6  -10.1   -5.1
I     0.8   12.1   -1.3
H   -11.3   -0.2    4.6
N    11.1   -3.9   -3.3
I    -3.9   -9.8    6.3
H    10.7   -0.3   -6.0
I     8.5   -8.4   -2.9
N    -8.6    8.0   -3.3
I    -1.3   -6.1  -10.6
P     1.0   -8.2    9.1
H     2.9   -2.3  -11.7
C    -1.6   10.5    6.3
H    -5.8    9.1    5.9
H    -8.1    8.4   -4.1
H   -10.6   -5.4    3.3
I    -1.4  -12.1    2.2
H    11.0    2.5   -5.2
H     5.2  -10.1   -5.1
H    11.6   -3.7   -2.5
I    -6.5    2.1   10.4
I     3.3   11.8    2.2
H    10.3   -5.6   -4.3
H     4.2   -0.3  -11.7
C    -3.7  -10.6   -5.4
N     0.9    0.4   12.4
N    10.8    0.7   -6.2
I    -3.8  -11.8   -1.3
P     1.2   -8.0   -9.6
P     8.5   -3.8   -8.3
C    -1.4   -1.2  -12.4
I   -11.0   -2.2   -5.6
H    11.7    1.1   -4.3
I     1.1    2.5  -12.3
C    10.8   -5.4   -3.4
I    -8.6   -5.7   -7.2
H   -10.6    4.8    4.9
H     9.1   -7.2    4.9
I     3.5    5.9  -10.6
H     0.7   -0.6   12.6
N   -11.3   -0.1    5.6
H   -10.4   -6.9    2.5
I    10.8    2.2    6.4
I    -1.3   -9.6   -8.2
H    10.2    6.4   -4.3
H    -0.6    0.7  -12.7
H     2.6   -0.1  -12.5
I     3.6   -6.1  -10.6
H    -1.6   11.8    4.6
I    -8.7   -2.6    9.0
H    -4.0    1.0   12.1
I     3.5  -12.1    2.2
I    -9.0    8.3    3.8
P    -6.3   -4.1   10.4
I    -4.0   12.1   -1.3
I     8.3    5.6    8.0
H    -0.5   -1.8  -12.7
I    -6.4    9.7   -5.5
H    -3.0   11.4   -5.1
N   -11.2    5.6    3.1
H     0.3  -10.9   -6.8
P    -3.9   -8.3    9.0
H    11.7   -3.6   -4.1
N     1.1  -11.3   -6.2
I    -8.8    6.2   -7.2
H    -2.2    0.7  -12.7
I     0.9    6.0   11.4
I     1.1   -6.0   11.4
H    -0.6  -11.5    5.9
H    -5.6   -0.3  -11.7
H    -3.7  -11.9   -3.7
H   -10.7    6.6    3.3
H    -7.3    9.4    5.2
H    -1.6   10.6    7.4
P     8.5   -9.9   -0.2
I     5.9   -9.8    6.3
H    -2.3   -1.8  -12.7
C    10.7    6.6   -3.4
C   -11.3   -1.5    6.3
