         400
 sphere cut out from bulk 
P     0.4    0.0   -1.1
I    -0.9   -2.1    0.9
I    -0.8    2.1    1.1
I     2.8   -0.1    1.0
P     0.3   -0.1    3.1
I    -2.0    0.1   -3.2
H    -0.6   -4.0   -0.7
I     1.5   -2.1   -3.2
I     1.6    2.1   -3.1
H    -3.3    2.7   -0.4
H    -3.9    1.6   -1.6
H     0.4   -4.1   -2.1
H    -0.2    4.4    1.7
C    -4.2    2.3   -0.8
N    -0.3   -4.7   -1.4
H     4.6    1.8   -0.1
H    -3.4   -3.1    2.2
H    -4.8    1.8   -0.1
H     3.6    3.0   -2.0
P     0.4    0.0   -5.3
H    -4.5   -1.7    2.2
H     1.3   -5.3   -0.3
H    -1.1   -5.0   -2.0
H     4.8   -1.7    2.2
I    -2.1   -0.3    5.2
C    -4.4   -2.7    2.5
N     0.1    5.3    2.1
N     4.4    3.4   -1.4
C     5.2    2.3   -0.8
H     4.1    4.0   -0.7
H     4.2   -3.4    2.2
C     0.5   -5.8   -0.8
I     1.5    2.0    5.3
H     1.1    5.5    1.7
H     5.5    1.6   -1.6
I     1.7   -2.3    5.2
H     0.8    4.6    3.9
H    -3.7   -2.1    4.4
N    -4.9    3.4   -1.4
H    -4.1   -1.5   -4.4
H    -4.4    3.9   -2.1
C     5.0   -2.7    2.5
H    -0.2   -6.3   -0.1
H    -0.5    6.1    1.7
C     0.1    5.3    3.6
H    -0.9    5.0    3.9
H    -3.6   -3.2   -4.3
H     0.8    4.5   -4.6
H     4.1   -2.6    4.4
H    -5.2   -3.4    2.2
N    -4.4   -2.8    4.0
H     4.1   -2.9   -4.4
H     0.9   -6.4   -1.6
H     6.1    2.7   -0.4
H    -5.3    4.0   -0.7
H     5.0    3.9   -2.1
I    -6.6   -0.1    1.0
H    -5.8    3.0   -2.0
C    -4.3   -2.6   -4.7
I     3.4    6.0    0.8
H    -0.7    5.4   -4.3
H     5.2   -1.5   -4.4
N     5.0   -2.8    4.0
H    -4.0   -3.7    4.4
H     6.0   -3.1    2.2
C    -0.0    5.1   -5.0
I     3.9   -6.0    1.0
P     0.2   -0.2    7.3
C     5.1   -2.6   -4.7
H    -0.6    4.5   -5.8
H    -5.3   -2.6    4.4
I    -3.0   -6.0   -3.2
H     0.3    6.3    4.0
H     5.7   -2.1    4.4
H    -5.3   -2.9   -4.4
I    -3.4    6.0   -3.3
H    -3.3   -2.4   -6.5
I    -0.7    2.2   -7.4
I    -1.0   -2.0   -7.4
H     5.3   -3.7    4.4
H     3.5    2.9    6.5
I     2.8   -0.2   -7.4
H     1.3   -4.4    6.4
H     5.8   -3.2   -4.3
N    -4.3   -2.6   -6.2
H    -3.9    1.6    6.8
I     7.4    0.1   -3.2
I    -2.2    7.8    1.0
H     4.5   -1.9   -6.6
I    -5.5   -6.0    1.0
H    -4.9   -1.9   -6.6
N     5.1   -2.6   -6.2
I    -6.0    6.0    0.8
N     0.6    6.3   -5.7
I    -3.5    5.9    5.2
I    -3.3   -6.0    5.2
H     1.0    6.9   -5.0
I    -7.7    2.1   -3.1
H    -0.9   -5.4    6.7
I    -2.0   -8.4    1.0
H    -4.5    3.9    6.3
H    -4.6   -3.5   -6.6
I    -7.9   -2.1   -3.2
I     8.5   -2.1    0.9
N     4.3    3.3    7.0
N     1.2   -5.3    6.9
H     5.5    1.6    6.8
H     4.8    3.9    6.3
H     1.4   -6.1    6.3
H     4.8   -3.5   -6.6
H     1.3    6.0   -6.4
I     8.6    2.1    1.1
I     7.3   -0.3    5.2
C    -4.3    2.2    7.6
I     2.6   -8.0   -3.4
P    -9.0    0.0   -1.1
I     6.0    6.0   -3.3
I     2.5    8.2   -3.4
H    -3.4    2.7    8.1
H    -5.9    2.9    6.5
P    -4.4   -8.0   -1.2
H     6.1   -2.4   -6.5
H    -0.2    6.8   -6.2
N    -5.1    3.3    7.0
I     6.3   -6.0   -3.2
C    -0.2   -5.5    7.5
C     5.1    2.2    7.6
P    -4.6    8.1   -1.2
P     0.4    0.1   -9.5
H     3.9    3.9    7.7
H    -0.3   -4.7    8.3
P     5.0   -8.0   -1.2
P     4.8    8.1   -1.2
H     4.5    1.6    8.3
H     1.9   -5.4    7.7
P    -9.0   -0.1    3.1
I    -7.7   -2.3    5.2
H    -0.1   -4.5   -8.5
H    -8.0   -5.3   -0.3
I    -0.9    1.9    9.4
H     8.8   -4.0   -0.7
H    -3.2    2.9   -8.7
I    -7.9    2.0    5.3
P    -4.6    8.0    3.0
I    -1.2   -2.2    9.4
H    -4.9    1.6    8.3
P    -4.4   -8.2    3.0
I     2.6   -0.4    9.4
P     4.8    8.0    3.0
I     5.9    5.9    5.2
P     9.8    0.0   -1.1
I    -6.5   -0.2   -7.4
H     0.7    9.7   -1.6
I     2.4    8.1    5.2
H    -4.7    1.9   -8.5
H     4.7    1.9   -8.5
H    -0.3    9.9   -0.1
I     2.5   -8.1    5.2
H     8.3   -5.0   -2.0
P     4.9   -8.2    3.0
I     6.1   -6.0    5.2
H    -9.0   -4.1   -2.1
H    -8.3    5.5    1.7
P     9.7   -0.1    3.1
H    -5.5    3.9    7.7
H    -0.3   -6.5    8.0
H    -0.4  -10.1    1.7
I     4.0   -5.8   -7.5
H     9.2    4.4    1.7
C    -4.1    2.4   -9.2
N     9.1   -4.7   -1.4
H     5.9    2.7    8.1
I     3.7    6.2   -7.5
P    -9.0    0.0   -5.3
C     0.3   10.4   -0.8
I   -10.2    2.1    1.1
H    -8.6    4.6    3.9
P    -4.2   -8.0   -5.3
I   -10.3   -2.1    0.9
H     1.1   -9.2   -5.0
H     8.5    5.0    3.9
C    -8.9   -5.8   -0.8
H     0.5   -9.9    4.0
C     0.0   -5.2   -9.3
H     2.1   -5.1   -9.1
H    -9.6    4.4    1.7
I     7.2    7.8    1.0
P    -4.4    8.2   -5.3
H    -8.6    4.5   -4.6
H     9.7   -4.1   -2.1
H     4.1    4.1   -9.1
H   -10.0   -4.0   -0.7
H    -8.5   -6.4   -1.6
N    -9.6   -4.7   -1.4
H    -0.0   -6.2   -8.8
H    -3.7    1.8  -10.0
I     3.7   10.1    1.0
H     1.2  -10.6    1.7
I     3.6  -10.2    0.8
I    -5.4   -5.8   -7.5
H     8.9    6.1    1.7
P     5.1   -8.0   -5.3
N    -9.3    5.3    2.1
C     5.3    2.4   -9.2
H     1.2   10.9   -0.3
P     5.0    8.2   -5.3
I    -6.8   -8.0   -3.4
H     6.2    2.9   -8.7
N     0.3  -10.8    2.1
H     8.7    5.4   -4.3
I    -1.8   -8.1   -7.4
P     9.8    0.0   -5.3
N     9.5    5.3    2.1
H    -3.5   -2.6   10.3
I    -2.0    8.1   -7.4
H     9.2   -6.3   -0.1
I    -3.2   10.2   -3.2
I    -3.2  -10.2   -3.3
I     7.4   -8.4    1.0
N     1.4   -5.1   -9.9
H    -0.0   -9.3   -6.2
H    -8.1   -4.4    6.4
I    -6.9    8.2   -3.4
H     4.3   -2.1   10.2
H    -5.3    4.1   -9.1
C    -9.3    5.3    3.6
I    -5.7    6.2   -7.5
H     1.5   -4.2  -10.4
H    -0.7   -5.1  -10.1
N     4.5    3.5   -9.8
I     8.4   -2.0   -7.4
H    -1.2   11.1   -2.0
H     3.7    3.1  -10.3
N     0.7   -9.9   -5.7
H    -9.5   -6.3   -0.1
C     9.5    5.3    3.6
C     0.2  -10.9    3.6
C     9.9   -5.8   -0.8
H     8.8    4.5   -5.8
N    -4.9    3.5   -9.8
P     0.2   -0.2   11.5
I     3.4    6.0    9.3
I    10.9   -2.1   -3.2
H    -0.6  -10.7   -4.3
I     8.7    2.2   -7.4
H    -5.1   -2.1   10.2
I    -6.8   -0.4    9.4
N    -0.4   11.5   -1.4
H     5.7    1.8  -10.0
I    11.0    2.1   -3.1
I    -5.7   10.1    1.0
I     3.8   -6.0    9.3
P    -4.5    8.0    7.2
H    -9.1    6.3    4.0
P    -9.2   -0.2    7.3
P    -4.4   -8.2    7.2
I    -1.9   -0.1  -11.6
H    -9.9    6.1    1.7
H   -10.4   -5.0   -2.0
I    -5.8  -10.2    0.8
C     9.3    5.1   -5.0
I    -6.9   -8.1    5.2
H     4.6   -3.7   10.2
I     1.7    2.2  -11.5
H    -0.8    4.3   11.0
C    -9.4    5.1   -5.0
P     4.9    8.0    7.2
N    -4.5   -2.8   10.6
H    -0.8  -11.2    3.9
I   -11.4    0.1   -3.2
H    -8.0   -6.1    6.3
I     1.9   -2.0  -11.5
H    10.2    4.6    3.9
H    -0.0  -11.8    1.7
H    -4.8   -3.7   10.2
I    -3.4   10.2    5.2
I    -7.0    8.1    5.2
H     1.2   10.1    6.3
H    -8.1    6.0   -6.4
H    10.5    5.5    1.7
H    10.7   -5.3   -0.3
H    -8.4    6.9   -5.0
N    -8.2   -5.3    6.9
H     1.1    5.8   10.4
I    -3.3  -10.3    5.2
H    -7.5   -5.4    7.7
P     5.0   -8.2    7.2
N     4.9   -2.8   10.6
H    10.2    4.5   -4.6
H    -4.3    4.1  -10.5
H     1.5  -10.1   -6.4
H     8.5   -5.4    6.7
P     9.6   -0.2    7.3
H   -10.3    5.0    3.9
H     5.9   -2.6   10.3
H     1.6   -5.9  -10.5
C     0.1  -11.1   -5.0
I    12.1   -0.1    1.0
H    10.2   -6.4   -1.6
H    -5.7    3.1  -10.3
H    -0.8   12.2   -0.7
H     9.7    6.3    4.0
H     0.2   12.1   -2.1
H   -10.1    5.4   -4.3
I    10.9    2.0    5.3
N    -8.8    6.3   -5.7
H     1.0  -11.6    3.9
H     5.1    4.1  -10.5
I     6.2  -10.2   -3.3
I     6.2   10.2   -3.2
H   -10.0    4.5   -5.8
I    -5.6   -6.0    9.3
I    11.0   -2.3    5.2
I    -2.2    7.9    9.4
H    -0.4    6.6   10.6
I    -5.9    6.0    9.3
H    -0.4    9.7    8.0
H     0.9  -11.7   -4.6
I   -11.5   -0.3    5.2
N     0.3    6.1   11.1
I     8.2   -2.2    9.4
I   -10.1    2.2   -7.4
I    -2.0   -8.3    9.4
C    -0.3    4.9   11.7
H    -7.3   -5.1   -9.1
H    -1.1   10.8    6.7
I     8.5    1.9    9.4
I     6.0   10.2    5.2
I   -10.3   -2.0   -7.4
H     4.2  -12.2   -0.7
N     1.0   10.8    6.9
H     0.6    4.3   12.2
H   -12.7    2.7   -0.4
H    -3.5   -1.8  -12.4
I     6.1  -10.3    5.2
P    -9.0    0.1   -9.5
H    -0.4  -11.7   -5.8
H     9.2    6.8   -6.2
N     9.9    6.3   -5.7
C    -0.3   10.7    7.5
C     9.2   -5.5    7.5
I     3.8  -10.0   -7.5
P    -4.1   -7.9   -9.6
H    -4.2  -12.2   -2.1
H     9.1   -4.7    8.3
H    -8.7    9.7   -1.6
C    -4.5   -2.8   12.1
H    10.7   -4.4    6.4
H    -5.1  -12.2   -0.7
I     7.4    8.1   -7.4
H    -4.4   -1.8   12.4
I     7.6   -8.1   -7.4
H    -9.6    6.8   -6.2
H    -0.2    9.9   -8.8
C     4.8   -2.8   12.1
H   -12.8   -3.1    2.2
H     4.3   -2.4  -12.4
C    -9.6   -5.5    7.5
P    -4.3    8.2   -9.6
I    -3.0   -5.8  -11.6
H    -8.2   -9.2   -5.0
H     3.8   -3.1   12.4
H     1.7   10.8    7.7
H     9.3   -4.5   -8.5
H   -10.3   -5.4    6.7
I     3.9   10.4   -7.5
H     9.1    9.9   -0.1
H     1.1   11.7    6.4
H    10.4    6.9   -5.0
H     5.2  -12.2   -2.1
H   -13.3    1.6   -1.6
H    -3.8   -3.5  -12.4
P     5.2   -7.9   -9.6
H    13.0    3.0   -2.0
H    -3.8   -3.5   12.5
H    -8.1  -10.6    1.7
H    -9.5   -4.5   -8.5
H     5.0   -1.8   12.4
I    -3.3    6.1  -11.6
H    -9.7   -4.7    8.3
H    -0.9    5.2   12.5
H     4.1   12.8    2.2
P     5.1    8.2   -9.6
H     0.8    6.7   11.8
H    -8.2   10.9   -0.3
H    -5.1   -2.4  -12.4
P     9.8    0.1   -9.5
H     9.0  -10.1    1.7
N    -4.2   -2.6  -12.8
N    -8.0   -5.1   -9.9
N     4.6  -12.8   -1.4
P     0.6    0.1  -13.7
I    -5.6  -10.0   -7.5
H    -7.9   -4.2  -10.4
H     9.1   -6.5    8.0
N    10.6   -5.3    6.9
N    -4.8  -12.8   -1.4
H    -3.6   13.1    2.2
C   -13.5    2.3   -0.8
H     1.0    4.8  -12.9
