         400
 sphere cut out from bulk 
P     0.2   -0.0    0.0
I    -2.4   -0.5    1.8
I    -1.7    0.4   -2.5
I     0.1    3.1    0.7
I     0.3   -3.2   -0.7
I     2.2   -0.5    2.5
I     2.9    0.4   -1.9
H    -3.0    2.2    0.0
H    -3.3   -2.3    0.3
H    -0.4   -1.8   -3.6
H     3.5   -2.3   -0.3
H     0.2    2.0   -3.9
H    -0.7   -3.2    3.0
H     3.8    2.3   -0.4
H    -0.5    3.1    3.2
H     1.3    3.2   -3.1
C    -3.5    3.1   -0.4
H     1.3   -2.4    4.0
H    -3.4    3.1   -1.5
N    -3.8   -3.2   -0.2
H     1.5    2.2    4.2
H    -3.6   -3.2   -1.2
H    -3.0    4.0    0.0
C     0.9    2.8   -4.0
N    -0.2   -2.3   -4.5
C     3.9   -3.2    0.1
H     3.8   -3.2    1.2
H    -1.1   -2.3    4.5
C    -0.6   -3.2    4.1
H    -3.3   -4.0    0.3
H    -0.8    2.3    4.6
N    -0.4    3.1    4.2
H     0.7   -1.9   -4.9
N     4.3    3.1    0.0
H     4.2    3.1    1.1
H     3.5   -4.1   -0.3
H     0.7   -4.0   -3.7
H     3.8    4.0   -0.4
N     0.8   -3.2    4.4
H     1.8    2.4   -4.7
C     1.1    3.1    4.6
H    -1.0   -2.0   -5.2
C    -0.1   -3.7   -4.4
H    -1.0   -4.1   -4.0
N    -4.9    3.1    0.0
H     1.3   -4.0    4.0
H    -5.4    2.3   -0.4
H     1.6    4.0    4.2
H    -5.0    3.1    1.1
H    -0.4    4.4   -4.2
C    -5.2   -3.2    0.1
H    -5.7   -2.3   -0.3
H    -0.8    3.9    4.6
P    -4.4   -0.0    4.3
H    -1.1   -4.1    4.5
P    -4.3   -0.0   -4.4
N     0.3    4.0   -4.8
N     5.4   -3.2   -0.2
P     0.2    6.3   -0.0
H     5.9   -2.3    0.3
P     0.2   -6.3   -0.0
H    -5.4   -3.2    1.2
H     0.9   -3.2    5.5
I    -1.7    0.5    6.2
I    -4.1   -3.2   -3.8
P     4.8   -0.0    4.3
C     5.7    3.1   -0.4
H     5.5   -3.2   -1.2
I    -4.4    3.1    3.6
P     4.8   -0.0   -4.4
H     6.2    2.2    0.0
I    -1.7    5.8   -2.6
I    -2.4   -5.8    1.8
H     1.2    3.1    5.7
I    -6.3    0.4   -1.9
H     5.8    3.1   -1.5
I     2.3   -0.5   -6.3
H    -5.4    4.0   -0.4
I     2.8    5.8   -1.9
I     4.7    3.1    3.6
I     2.2   -5.8    2.5
H    -0.0    3.6   -5.7
H     0.1   -4.2   -5.4
H     1.0    4.7   -4.9
H    -5.7   -4.1   -0.3
I     6.8   -0.5    1.8
I     5.0   -3.2   -3.8
H     5.9   -4.0    0.3
I    -2.3   -0.6   -6.9
I    -4.3   -3.2    5.1
H     6.2    4.0    0.0
I    -2.4    6.8    1.8
I    -7.0   -0.5    2.5
I     2.9    0.5    6.9
I    -4.5    3.1   -5.1
I    -1.7   -6.8   -2.6
I     2.2    6.8    2.5
I     4.7    3.1   -5.1
I     2.8   -6.8   -1.9
I     4.9   -3.2    5.1
I     7.5    0.4   -2.5
I     0.4   -3.2    8.0
I    -1.7    5.8    6.1
P     0.2   -0.0    8.6
H    -3.4    3.1    7.4
I     0.2    3.1   -8.2
P    -4.4    6.3    4.3
I    -6.4    5.8   -1.9
P    -4.3    6.3   -4.4
P    -4.4   -6.3    4.3
P    -4.3   -6.3   -4.4
P     0.3   -0.0   -8.8
P    -8.9   -0.0    0.0
H     4.0   -3.2   -7.3
H    -7.6    2.2    4.2
I     2.3   -6.0   -6.3
P     4.8    6.3    4.3
H    -7.9    3.2   -3.1
H    -3.7   -3.2    7.6
P     4.8   -6.3    4.3
P     4.8    6.3   -4.4
H    -7.4    2.4   -4.7
H    -3.0   -8.6    0.0
P     4.9   -6.3   -4.4
I     6.8   -5.8    1.8
H    -7.9   -2.4    4.0
H     3.5    8.5   -0.3
H    -3.3    8.6    0.3
H     4.2    3.1   -7.6
H    -0.4   -8.2   -4.2
I    -6.3    0.5    6.9
I    -1.7   -6.8    6.1
I    -6.9   -0.5   -6.3
I     2.8    5.8    6.8
I    -2.3   -5.9   -6.9
H    -3.3   -2.4   -8.5
H    -3.0    2.2   -8.6
H     1.1   -7.9   -4.9
I     2.2    6.6   -6.3
P     9.4   -0.0    0.0
H    -1.0    8.5   -4.0
I    -7.0   -5.8    2.5
H     0.7    8.6   -3.7
I     0.3    9.4   -0.7
H     3.8   -8.6   -0.4
I    -8.9   -3.2   -0.7
H     3.8    2.3    8.4
H     8.1   -2.3    4.5
H     8.5   -3.2    3.0
I    -6.3   -6.8   -1.9
I     0.2   -9.5    0.7
H     1.3    8.6    4.0
H    -5.2   -3.2   -7.3
H    -7.6    4.0    4.2
I    -9.0    3.1    0.7
C    -8.2    2.8   -4.0
H     3.5   -2.3    8.7
H    -3.0    2.2    8.9
H     8.7   -1.8   -3.6
H    -5.0    3.1   -7.6
C    -3.5    3.1    8.5
I     7.4    0.5    6.2
H    -1.1    8.5    4.5
H     1.6   -8.6    4.2
I     6.8    6.8    1.8
H    -7.9   -4.0    4.0
I     7.4    5.8   -2.6
H     8.7    3.1    3.2
I     6.9   -0.6   -6.9
H     3.5   -2.3   -8.8
C    -8.1    3.1    4.6
I     0.1    3.1    9.3
H     8.4    2.3    4.6
I     9.3    3.1    0.7
H    -0.8   -8.7    4.6
H     5.8    3.1    7.4
C     4.0   -3.2   -8.4
C    -0.1    8.9   -4.4
H     5.4   -3.2    7.6
N     0.3   -8.7   -4.8
H    -0.7    9.4    3.0
H    -3.3   -2.4    9.0
H     8.2   -2.0   -5.2
H    -3.3   -4.1   -8.5
I    -2.3    6.7   -6.9
H     8.2   -4.1   -4.0
N    -3.8   -3.2    8.6
H    -3.0    4.0   -8.6
C     8.5   -3.2    4.1
H    -8.5   -1.9   -4.9
H     0.1    8.4   -5.4
I     9.5   -3.2   -0.7
N    -8.4   -3.2    4.4
H    -8.4   -4.0   -3.7
I     0.4   -3.2   -9.5
H    -0.4   -9.5    3.2
H    -9.0    2.0   -3.9
H     1.3   -9.5   -3.1
H     3.8    4.0    8.4
I    -7.0    6.8    2.5
H     8.1   -4.1    4.5
I     2.9   -6.9    6.8
H     3.8    2.3   -9.1
C    -3.5   -9.5   -0.4
N    -3.7   -3.2   -8.9
N     4.3    3.1   -8.7
C    -3.5    3.1   -9.0
N    -3.8    9.4   -0.2
H    -5.4   -8.6   -0.4
H    -3.7    9.4   -1.2
H     3.5   -4.1    8.7
H    -3.0    4.0    8.9
C     3.9    9.4    0.1
H    -3.4   -9.5   -1.5
H     3.8    9.4    1.2
H    -5.7    8.5   -0.3
N     8.8    3.1    4.2
C    -0.7    9.4    4.1
H    -5.4    2.3    8.4
N     4.2    3.1    8.8
H    -8.0    3.1    5.7
N     9.0   -2.3   -4.5
H     9.3    2.0   -3.9
H     8.4    3.9    4.6
H     3.5   -4.1   -8.8
H     5.8    8.6    0.3
C     4.0   -3.2    9.1
C    -5.2   -3.2   -8.4
N    -0.3   -9.5    4.2
H    -8.3   -3.2    5.5
N     4.3   -9.5    0.0
N     0.8    9.4    4.4
H     4.2   -9.5    1.1
H    -9.6   -1.8   -3.6
I     7.5   -6.8   -2.6
H    -3.3   -4.1    9.0
N    -4.9    3.1   -8.7
N    -4.9    3.1    8.8
H     5.9   -2.4   -8.5
C     1.1   -9.5    4.6
H     6.2   -8.6    0.0
H     3.8    4.0   -9.1
H    -5.7   -2.3    8.7
H    -9.6    3.1    3.2
H    -0.0   -9.0   -5.7
H    -8.1    4.7   -4.9
H     8.7    4.4   -4.2
C     5.7    3.1    8.5
C     1.0   -9.8   -4.0
N    -9.4   -2.3   -4.5
P     0.2    6.3    8.6
N     5.4   -3.2    8.6
N    -4.9   -9.5    0.0
P     0.2   -6.3    8.6
H    -5.6   -2.3   -8.8
H    -5.0   -9.5    1.1
C     9.1   -3.7   -4.4
H    -5.4    4.0    8.4
H    -5.4    2.3   -9.1
C    -5.3    9.4    0.1
N    -8.9    4.0   -4.8
H    -3.3   10.3    0.3
H    -9.9   -3.2    3.0
H    -3.0  -10.4    0.0
H     6.2    2.2   -8.6
I    -2.3   -0.6   10.6
N     5.4    9.4   -0.2
N     5.4   -3.2   -8.9
N    -9.5    3.1    4.2
P     0.3    6.3   -8.9
H     3.5   10.3   -0.3
P     0.3   -6.3   -8.9
H     0.9    9.4    5.5
C    -9.3   -3.7   -4.4
H    -5.4    9.4    1.2
P    -9.0    6.3   -0.0
C    -5.2   -3.2    9.1
I    -6.3    5.8    6.8
P    -8.9   -6.3   -0.0
I    -4.2    9.4   -3.8
H     5.5    9.4   -1.2
H     6.1    2.2    8.9
H     3.8  -10.3   -0.4
H     5.9   -2.4    9.0
I     2.9    0.5  -10.6
H    -3.7   -3.2   -9.9
H     1.3   10.2    4.0
I    -4.4   -9.5    3.6
C    -9.8   -3.2    4.1
H     5.9   -4.1   -8.5
C     5.7   -9.5   -0.4
I    -6.9   -6.0   -6.3
H    -3.4    3.1  -10.1
H     1.2   -9.5    5.7
H     4.1    3.1    9.9
C     5.7    3.1   -9.0
H    -5.7   -4.1    8.7
H     9.9   -1.9   -4.9
I   -10.9    0.4   -2.5
I     4.7   -9.5    3.6
H     5.8   -9.5   -1.5
I     7.4    5.8    6.1
C    10.1    2.8   -4.0
H   -10.0    2.3    4.6
H    -5.7   -4.1   -8.8
H    -5.4    4.0   -9.1
H     0.2  -10.6   -3.9
N    -0.2   10.3   -4.5
H    -1.1   10.3    4.5
P     9.4    6.3   -0.0
H     1.6  -10.4    4.2
H     9.9   -4.0   -3.7
I     5.0    9.4   -3.8
N     9.5    4.0   -4.8
H     3.9   -3.2   10.2
H     6.2    4.0   -8.6
P     9.4   -6.3   -0.0
H     1.8  -10.2   -4.7
H    -0.8  -10.3    4.6
H    -9.1   -4.2   -5.4
H    10.5    3.2   -3.1
N    10.0   -3.2    4.4
H    -9.6    4.4   -4.2
H     9.2    3.6   -5.7
H    -0.4   10.8   -3.6
I     6.9   -5.9   -6.9
H    -9.2    3.6   -5.7
I     2.2   -0.5   11.2
H    10.4   -2.4    4.0
H   -10.3   -2.3    4.5
I    -1.7    0.5  -11.3
I    -6.9    6.6   -6.3
H     9.3   -4.2   -5.4
H     5.9   -4.1    9.0
H    -5.0    3.1    9.9
H     6.1    4.0    8.9
I    -4.3    9.4    5.1
I    -6.3   -6.9    6.8
H   -10.1   -2.0   -5.2
H    -5.4  -10.3   -0.4
I    -4.4   -9.5   -5.1
C    10.3    3.1    4.6
I    11.4   -0.5    2.5
H   -10.2   -4.1   -4.0
H   -10.0    3.9    4.6
H    10.7    2.2    4.2
I   -11.6   -0.5    1.8
I     4.9    9.4    5.1
H     5.5   -3.2   -9.9
I     4.7   -9.5   -5.1
H    -5.7   10.3   -0.3
H     5.8   10.3    0.3
I     7.4   -6.8    6.1
H    -1.0   10.6   -5.2
H     0.7   10.8   -4.9
I     6.9    6.7   -6.9
H    -5.3   -3.2   10.2
H    10.4   -4.0    4.0
H    10.1   -3.2    5.5
H   -10.3   -4.1    4.5
H     5.8    3.1  -10.1
H     6.2  -10.4    0.0
H    10.9    2.4   -4.7
H    10.7    4.0    4.2
I    12.0    0.4   -1.9
H    10.4    3.1    5.7
H    -7.6   -8.6    4.2
H    10.2    4.7   -4.9
H     1.2    3.1  -11.8
I    -2.3   -5.9   10.5
I    -8.8   -3.2    8.0
H    -0.1    3.6   11.8
H    -7.9    8.6    4.0
I     0.3    9.4    8.0
I    -6.3    0.5  -10.6
H    -8.1   -7.9   -4.9
H   -12.2    2.2    0.0
H     8.1    8.5   -4.0
P    -8.9   -0.0    8.6
I    -2.4   12.1    1.8
I     2.9    5.8  -10.7
H    -3.3    8.6   -8.5
H    -3.4   -9.5    7.4
H     1.0   -3.2  -12.0
H    -1.0   -2.0   12.3
I     2.2   12.1    2.5
H    -3.0   -8.6   -8.6
I     0.2   -9.5   -8.2
P    -8.9   -0.0   -8.8
H     8.1    8.5    4.5
I   -10.9    0.5    6.2
I    -9.0    3.1   -8.2
P     0.2   12.6    0.0
H     3.9    9.4   -7.3
I     6.8   -0.6   10.6
I   -10.9    5.8   -2.6
H     3.5    8.5    8.7
I    -1.7  -12.2   -2.5
H    -3.8    9.4    7.6
H    -8.5    8.6   -3.7
