         400
 sphere cut out from bulk 
P    -0.0   -0.0   -1.3
I     1.0   -2.1    0.9
I    -2.4    0.2    0.8
I     1.3    2.1    0.8
P    -0.0    0.1    2.9
I     2.4   -0.2   -3.3
I    -1.2    2.0   -3.5
I    -1.3   -2.2   -3.4
H     0.4    4.4    0.1
H    -0.0   -4.1    2.0
H     3.6   -3.0   -0.4
H     3.7    2.5    1.6
H    -4.4   -1.7   -0.4
H    -4.1    1.9    1.6
H    -0.7    4.6   -2.1
H    -3.7   -2.6   -2.5
H     4.9   -1.7   -0.4
H     4.1   -2.0   -2.6
H    -4.0   -3.4   -0.3
N     0.0    5.3   -0.3
H    -1.0   -4.0    3.4
C     4.6   -2.7   -0.7
N    -0.6   -4.7    2.7
C    -4.7   -2.7   -0.7
P     0.1   -0.2   -5.5
I    -1.3   -2.1    5.0
H     1.0    5.0   -2.1
I     2.4   -0.1    5.0
H    -0.9    5.5    0.1
C     0.0    5.3   -1.7
I    -1.2    2.2    5.1
N     4.6    2.7    2.0
H    -1.4   -5.1    2.2
N    -4.7    2.7    2.0
H     5.2    1.9    1.6
N    -4.6   -2.7   -2.2
N     4.7   -2.7   -2.2
H    -4.3    3.6    1.6
H     4.4    1.6    3.8
H    -3.7    2.9    3.8
H    -0.3   -4.5   -4.1
H     0.6    6.1    0.1
H    -5.2   -2.0   -2.6
H     4.3   -3.6   -2.6
H     5.0    3.6    1.6
C     4.6    2.6    3.5
H     3.9    3.3    3.8
H     5.3   -3.4   -0.3
H    -4.9    1.6    3.8
C    -4.7    2.6    3.5
H    -5.6    2.5    1.6
H    -5.7   -3.0   -0.4
H    -3.0    2.7   -5.1
H     4.1    1.7   -4.9
H     1.0   -5.2    3.9
C     0.2   -5.7    3.4
H    -0.2    6.3   -2.1
H    -5.0   -3.6   -2.6
H     5.6   -2.6   -2.5
I    -3.3    5.8    0.9
I     6.9    0.2    0.8
H     0.6   -6.4    2.6
H     1.0   -5.6   -4.0
I    -3.4   -6.0    1.0
N     0.0   -5.4   -4.4
H     4.1    3.5   -4.5
P    -0.0   -0.1    7.1
C     4.2    2.7   -5.3
H    -0.3    4.4    5.9
H    -5.2    1.7   -4.9
H     5.6    2.9    3.8
H    -0.6   -6.2   -4.0
H    -5.4    3.3    3.8
N    -3.7    2.8   -5.9
H    -0.4   -6.3    4.1
I     3.4   -5.9   -3.3
H     3.5    2.9   -6.1
I    -6.9   -0.2   -3.3
I     3.5    6.0   -3.3
H    -3.5    2.0   -6.5
H    -5.2    3.5   -4.5
C    -5.1    2.7   -5.3
I     1.2    2.0   -7.5
H     4.4   -1.7    6.3
I    -2.4   -0.2   -7.6
H    -3.7   -3.1    6.3
H     0.8   -4.8   -6.3
I     1.3   -2.2   -7.6
C     0.0   -5.5   -5.9
H     1.0    5.5    5.9
H     3.8   -3.4    6.3
H    -3.5    3.7   -6.4
H    -0.9   -5.2   -6.3
N     0.0    5.3    6.3
H    -4.9   -1.7    6.3
I     2.3    7.8    0.9
I    -8.0    2.1    0.8
I     6.0    5.8    0.9
H    -0.6    6.0    5.9
I     3.3    5.9    5.1
I     5.9   -6.0    1.0
C     4.6   -2.7    6.7
I    -6.9   -0.1    5.0
H     6.3    2.7   -5.1
I    -8.2   -2.1    0.9
N     5.6    2.8   -5.9
I     2.3   -8.2    0.9
C    -4.7   -2.7    6.7
I     3.5   -6.0    5.1
I    -2.2   -7.9   -3.3
H    -5.8    2.9   -6.1
I    -5.8    6.0   -3.3
I    -5.9   -5.9   -3.3
H     5.8    2.0   -6.5
H     5.6   -3.1    6.3
I     8.0   -2.2   -3.4
H     0.2   -6.5   -6.2
H    -5.5   -3.4    6.3
I     8.1    2.0   -3.5
I    -2.2    8.2   -3.3
P    -4.6    8.0   -1.2
P     4.7    8.0   -1.2
H     5.8    3.7   -6.4
P     9.3   -0.0   -1.3
P    -4.6   -8.1   -1.2
H     0.8    4.6    8.1
C     0.0    5.3    7.7
P     4.7   -8.1   -1.2
P    -9.3   -0.0   -1.3
H    -4.0   -2.0   -8.3
H     3.7   -2.6   -8.3
H    -1.0    5.0    8.1
I     1.1    2.0    9.3
I    -2.2    7.8    5.1
I     1.2   -2.2    9.2
I    -2.5   -0.2    9.3
H     3.6   -2.6    8.5
I     8.0   -2.1    5.0
H     7.9   -5.1    2.2
H    -4.1   -2.0    8.5
P    -4.6    7.9    3.0
P     4.7    7.9    3.0
P     0.1   -0.1   -9.7
P     9.3    0.1    2.9
N     4.6   -2.8    8.1
P    -9.3    0.1    2.9
I    -5.8   -6.0    5.1
I    -6.0    5.9    5.1
N    -4.7   -2.8    8.1
I     8.1    2.2    5.1
H     8.3   -4.0    3.4
P    -4.6   -8.1    3.0
P     4.7   -8.1    3.0
H     0.9    4.7   -8.7
H    -8.3    5.0   -2.1
H     8.6    4.6   -2.1
H    -0.2   -9.7   -2.1
H    -8.9    4.4    0.1
H     8.3    5.5    0.1
I    -2.2   -8.3    5.1
H     0.6  -10.0    0.1
H     0.6    9.6    2.6
H     5.3   -2.0   -8.3
H    -4.3   -3.7   -8.3
I    -3.4    5.9   -7.4
H    -0.9    5.0   -8.7
I    -3.5   -5.9   -7.5
H     5.2   -2.0    8.5
N    -4.6   -2.7   -8.7
I     6.9   -0.2   -7.6
N     4.7   -2.7   -8.7
N     8.7   -4.7    2.7
H    -4.4   -3.7    8.5
H     0.2    6.3    8.1
H     9.3   -4.1    2.0
H    -5.6   -2.6   -8.3
H     5.0   -3.7   -8.3
H    -9.3   -4.1    2.0
H     4.9   -3.7    8.5
H    -8.3   -5.2    3.9
C     0.1    5.3   -9.1
H    -5.7   -2.6    8.5
I    -7.0    7.8    0.9
H    -8.7    6.1    0.1
I    10.3   -2.1    0.9
H    -0.9  -10.6    0.1
H     9.7    4.4    0.1
H    -0.4    9.8    4.1
I    -3.4   10.0    1.0
H    -0.6    9.9   -4.0
N    -9.3    5.3   -0.3
P    -4.6   -8.0   -5.4
N     9.3    5.3   -0.3
P    -4.6    8.0   -5.4
P    -9.2   -0.2   -5.5
N     0.0  -10.7   -0.3
P     4.7    8.0   -5.4
P     4.7   -8.0   -5.4
H    -8.3   -5.6   -4.0
H     0.3    6.3   -8.7
I    10.6    2.1    0.8
I    -3.3  -10.3    0.9
H     9.0   -4.5   -4.1
C    -9.3    5.3   -1.7
P     9.4   -0.2   -5.5
C     0.2   10.3    3.4
C     9.3    5.3   -1.7
I    -7.0   -8.2    0.9
C     0.0  -10.7   -1.7
H    -3.6    2.0   10.3
I     7.1   -7.9   -3.3
H    -8.7   -6.4    2.6
I     5.8   -5.9   -7.5
I     2.3    8.0   -7.5
I     3.5  -10.1   -3.3
I     5.9    5.9   -7.4
I     3.4   10.2   -3.3
I    -8.0   -2.2   -7.6
I   -10.5    2.0   -3.5
H   -10.0    4.6   -2.1
H     9.1    6.3   -2.1
C    -9.1   -5.7    3.4
I    -8.1    2.0   -7.5
H     1.0  -11.0   -2.1
H    -1.4   11.0    2.2
I     2.3   -8.1   -7.5
H     1.0   10.5   -4.0
N    -9.9   -4.7    2.7
I     7.1    8.2   -3.3
I   -10.6   -2.2   -3.4
P    -0.0   -0.2   11.3
H    -9.6   -4.5   -4.1
H     0.2    9.5   -6.2
H     8.7   -6.2   -4.0
I     6.8   -0.2    9.3
C    -4.6   -2.7  -10.2
C     4.7   -2.7  -10.2
N     0.0   10.6   -4.4
H     4.5   -1.7  -10.5
H     1.0   10.8    3.9
H    -3.7   -3.0  -10.5
H   -10.3   -4.0    3.4
H    -8.3    5.5    5.9
H     9.0    4.4    5.9
I    -3.5   -5.9    9.3
H    -8.5   -4.8   -6.3
N    -9.3   -5.4   -4.4
H     3.4    2.9   10.7
H     0.7   -4.8   10.5
I    -3.4    5.9    9.4
C     9.5   -5.7    3.4
H     8.9   -6.3    4.1
H   -10.2    5.5    0.1
H    -9.5    6.3   -2.1
H     9.9    6.1    0.1
H    -0.6  -10.0    5.9
H    -3.6    3.7   10.4
H     0.4  -11.6    0.1
H     8.4   -5.2   -6.3
H    10.3    5.0   -2.1
H    -0.7  -11.5   -2.1
I     5.9   10.0    1.0
N     9.3   -5.4   -4.4
H    -4.8   -1.7  -10.5
I     7.1    7.8    5.1
N    -0.6   11.4    2.7
P     4.6    7.9    7.2
P     9.3   -0.1    7.1
P    -4.7    7.9    7.2
H     3.9   -3.4  -10.5
P    -9.3   -0.1    7.1
I   -11.7    0.2    0.8
H    -0.2    4.4  -10.9
H    -1.0   -5.2   10.5
I     3.5   10.0    5.1
I   -10.5    2.2    5.1
N     0.1    5.3  -10.6
P     4.6   -8.1    7.2
P    -4.7   -8.1    7.2
I   -10.6   -2.1    5.0
I     3.3  -10.2    5.1
I     6.0  -10.3    0.9
N    -3.8    2.8   11.0
H     5.7    2.0   10.3
I    -1.1    2.2  -11.8
I     7.1   -8.3    5.1
I     2.5   -0.0  -11.8
H   -10.7   -5.1    2.2
H     9.9   -6.4    2.6
I    -5.8  -10.1   -3.3
H    -9.6    4.4    5.9
H     8.7    6.0    5.9
H    -0.0   11.9    2.0
I    -1.2   -2.1  -11.9
C     0.0   10.6   -5.9
H     1.0  -10.6    5.9
I    11.7   -0.2   -3.3
C    -0.0   -5.5   10.9
H    10.3   -5.2    3.9
I    -5.9   10.2   -3.3
H    -9.7   -6.3    4.1
H    -0.3   11.6   -4.1
C    -9.3   -5.5   -5.9
H     1.1    5.5  -10.9
H    -5.4   -3.4  -10.5
H     5.6   -3.0  -10.5
H    -9.9   -6.2   -4.0
C     9.3   -5.5   -5.9
N    -9.3    5.3    6.3
H    10.3   -5.6   -4.0
N     9.3    5.3    6.3
H    -3.1    2.7   11.7
H     5.7    3.7   10.4
H     0.2   -6.5   10.6
I    -8.1   -2.2    9.2
I     2.2    7.9    9.3
N     0.0  -10.8    6.3
I     5.8   -5.9    9.3
H    -0.5    6.0  -10.9
C     4.1    2.7   11.5
H    -5.9    2.9   10.7
H    -1.0   12.0    3.4
I     5.9    5.9    9.4
I    -8.2    2.0    9.3
I     2.2   -8.1    9.3
N     5.5    2.8   11.0
H    -1.0   10.9   -6.3
H    -8.5    4.6    8.1
H     8.3    5.0    8.1
I    -5.8   10.0    5.1
H     0.2   -9.7    8.1
I    11.7   -0.1    5.0
H     4.0    1.7   12.0
H    -9.1   -6.5   -6.2
H    10.1   -4.8   -6.3
I    -6.0  -10.2    5.1
C    -5.2    2.7   11.5
H     0.8   11.2   -6.3
H    -8.4    4.7   -8.7
I    -7.0    8.0   -7.5
H    -9.9    6.0    5.9
I    -3.3  -10.1   -7.4
H    10.3    5.5    5.9
I    10.5    2.0   -7.5
I    -7.0   -8.1   -7.5
H   -10.2   -5.2   -6.3
H     0.3   -9.7   -8.7
I    -3.5   10.2   -7.5
H    -0.3  -11.7    5.9
H     8.4    5.0   -8.7
H     9.5   -6.5   -6.2
H    -5.3    1.7   12.0
C    -9.3    5.3    7.7
H    -8.7  -10.0    0.1
C     9.3    5.3    7.7
I    10.6   -2.2   -7.6
H    -4.0   12.6   -0.3
H    12.9   -3.0   -0.4
H    -8.7    9.6    2.6
C     0.0  -10.8    7.7
P    -4.6    8.0   -9.6
H    13.0    2.5    1.6
H    -4.3  -12.5    1.6
P     4.7    8.0   -9.6
P    -4.6   -8.1   -9.6
H     4.1    3.5   12.3
H     4.3   12.4   -2.6
P    -9.2   -0.1   -9.7
P     4.7   -8.1   -9.6
H     9.1   -9.7   -2.1
H   -13.0   -2.6   -2.5
P     9.4   -0.1   -9.7
H     8.4  -10.6    0.1
H    -0.4   -4.5   12.7
N    -0.0   -5.4   12.4
H     5.0  -12.5    1.6
H     6.2    2.7   11.7
I     3.4    5.9  -11.7
I    -1.3    2.0   13.4
H   -12.3    2.7   -5.1
H   -13.4    1.9    1.6
H     3.6   13.1   -0.4
H    -5.0   12.4   -2.6
I    -6.8   -0.0  -11.8
I     3.6   -6.0  -11.7
H     7.9   11.0    2.2
H     5.3   12.6   -0.3
I     2.3   -0.3   13.5
H    -9.1    6.3    8.1
H   -13.3   -3.4   -0.3
I    -1.4   -2.3   13.5
H    13.4   -2.0   -2.6
H    10.1    4.6    8.1
H    -0.9  -11.1    8.1
H    -9.5   -9.7   -2.1
H     8.7    9.9   -4.0
H    -5.2    3.5   12.3
H    -3.6    2.9  -13.0
H   -13.7   -1.7   -0.4
H   -13.0    2.9    3.8
