         400
 sphere cut out from bulk 
P     0.0   -0.0   -0.2
I    -1.9   -0.5    2.3
I     0.3    3.1    0.5
I     2.7   -0.5    1.6
I    -2.6    0.4   -2.0
I    -0.0   -3.2   -0.9
I     2.1    0.5   -2.7
H    -3.2   -2.4   -0.3
H     3.8    1.6    0.3
H    -3.8    1.9   -0.4
H     3.6   -2.4    0.1
H     0.8    3.2    3.0
H    -0.6   -2.0    3.9
H     1.1   -3.3    2.8
H    -0.9    3.1   -3.2
H    -0.6   -3.3   -3.4
H    -1.3    2.3    4.0
C    -3.7   -3.3    0.1
H     1.1    2.3   -4.3
H     0.9   -1.7    4.6
H    -3.6   -3.3    1.2
H     3.2    3.9    0.1
H    -4.3    2.6    1.1
N     0.1   -2.4    4.5
N     4.6    2.3    0.1
H     1.1    2.3    4.4
H     3.7    3.3   -1.5
N    -4.6    2.3    0.1
N     0.7    3.2    4.0
H     1.4   -2.3   -4.4
N     4.1   -3.3   -0.3
H    -3.2   -4.2   -0.3
C     0.7   -3.6    3.8
H    -1.3    2.2   -4.7
H     4.0   -3.3   -1.4
C    -0.8    3.1   -4.3
C     4.0    3.5   -0.5
H     3.6   -4.1    0.1
C    -0.8    3.2    4.4
H    -1.0   -2.4   -4.8
N    -0.5   -3.2   -4.4
H    -5.3    1.6    0.3
N     0.6    3.1   -4.7
H     4.9    2.6    1.1
H     5.3    1.9   -0.4
H    -0.0   -4.4    3.7
H    -1.2    4.1    4.0
C     0.9   -3.2   -4.8
H     1.1    4.0   -4.3
N    -5.1   -3.3   -0.3
H    -0.2   -2.7    5.4
H    -5.6   -2.4    0.1
H     1.1    4.0    4.4
H    -4.4    4.3   -0.6
H     1.6   -4.0    4.4
P    -4.5   -0.1    4.2
P     0.0    6.2   -0.2
H     1.4   -4.1   -4.4
H    -5.2   -3.3   -1.4
I     2.0    0.4    5.9
C    -5.2    3.5   -0.5
H    -1.3    4.0   -4.7
P     4.7   -0.1    4.2
H    -0.9    3.2    5.5
P     0.0   -6.4   -0.2
H    -1.0   -4.1   -4.9
P    -4.5   -0.0   -4.6
C     5.5   -3.3    0.1
H     4.8    4.3   -0.6
H     6.0   -2.4   -0.3
I    -4.5    3.1    3.6
H     0.7    3.1   -5.7
P     4.7   -0.0   -4.6
H    -5.5    3.3   -1.5
H     5.6   -3.3    1.2
I    -1.9   -5.9    2.3
I    -6.4   -0.5    1.6
I    -1.9   -0.5   -6.4
I     4.7    3.1    3.6
I    -2.5    5.8   -2.1
I     2.7   -5.9    1.6
I     2.0    5.8   -2.8
I     4.6   -3.2   -3.9
H     1.0   -3.2   -5.9
I    -4.6   -3.2   -3.9
H    -5.6   -4.1    0.1
I     6.6    0.4   -2.0
H    -6.0    3.9    0.1
I    -2.6    0.4    6.7
I    -1.9    6.7    2.3
H     6.0   -4.2   -0.3
I     4.5   -3.2    4.9
I     2.7    6.7    1.6
I    -4.7   -3.2    4.9
I    -2.5   -6.8   -2.1
I    -4.4    3.1   -5.3
I     2.0   -6.8   -2.8
I    -7.1    0.5   -2.7
I     7.3   -0.5    2.3
I     2.7   -0.5   -7.1
I     4.7    3.1   -5.3
I     0.0   -3.2    7.9
I     2.0    5.8    6.0
P     0.1   -0.0    8.6
H     3.7    3.1    7.1
P    -4.5    6.3    4.2
P    -4.5   -6.3    4.2
I     0.2    3.1   -8.2
P     0.1   -0.0   -8.9
P     4.7    6.3    4.2
I    -1.9   -5.8   -6.4
I    -6.5   -5.9    1.6
P     4.7   -6.3    4.2
H    -3.5   -3.2   -7.6
P    -4.5    6.3   -4.6
H     4.0   -3.2    7.4
H    -3.2    8.4   -0.3
H    -0.0    8.2    3.7
P    -4.5   -6.3   -4.6
P     4.7    6.3   -4.6
I     6.7    5.8   -2.1
P     4.7   -6.3   -4.6
P    -9.1   -0.0   -0.2
H     7.9    2.3    4.0
H    -8.1   -3.3    2.8
I    -2.5    5.8    6.7
H    -3.5    2.3    8.2
H     3.6    8.5    0.1
P     9.2   -0.0   -0.2
H    -7.8   -2.3   -4.4
H    -3.2   -2.3    8.4
H    -3.9    3.1   -7.8
H     3.2   -8.7    0.1
I     2.1   -6.8    6.0
I    -7.2    0.4    5.9
H    -8.1    2.3   -4.3
H    -4.3   -8.3   -0.6
H     8.3    3.1   -3.2
I    -8.9    3.1    0.5
I    -0.0    9.4   -0.9
H     7.9    2.2   -4.7
I    -6.5    6.7    1.6
I     6.6    0.4    6.7
H    -8.4    3.2    3.0
H    -1.2   -8.5    4.0
H    -8.1    2.3    4.4
H    -5.4    3.1    7.1
H     3.3    2.2    8.6
I    -1.9    6.8   -6.4
I     0.3   -9.5    0.5
C     3.8    3.1    8.2
I    -7.1    5.8   -2.8
I     2.7   -5.9   -7.1
H    -5.2   -3.2    7.4
H     8.6   -2.0    3.9
I    -6.5   -0.5   -7.1
H     4.8   -8.3   -0.6
I     7.3   -5.9    2.3
H    -7.6   -4.0    4.4
H     1.4    8.5   -4.4
H     3.6   -2.4   -8.6
H    -8.3   -1.7    4.6
H     1.1   -8.6   -4.3
H     3.3    2.2   -8.8
I     7.3   -0.5   -6.4
I     0.2    3.1    9.2
I     9.2   -3.2   -0.9
H     1.1   -8.6    4.4
I    -9.2   -3.2   -0.9
I     6.7   -6.8   -2.1
H     1.1    9.3    2.8
H    -3.5    3.9    8.2
H     7.9    4.1    4.0
H     8.6   -3.3   -3.4
C     0.7    9.0    3.8
H     8.2   -2.4   -4.8
H     1.5    8.6    4.4
H     3.6   -2.4    8.8
H    -7.8   -4.1   -4.4
H    -1.0    8.5   -4.9
H    -3.2   -4.1    8.4
H    -1.3   -8.6   -4.7
C     8.4    3.1   -4.3
I    -2.5   -6.9    6.7
N     4.1   -3.2    8.4
I     9.4    3.1    0.5
H    -3.2   -2.3   -9.1
H     0.8   -9.4    3.0
C    -8.4   -3.6    3.8
N    -8.5    3.2    4.0
C     4.0   -9.1   -0.5
C    -3.6   -3.2   -8.7
H     5.3    3.1   -7.8
H    -8.1    4.0   -4.3
H    -0.6    9.4   -3.4
N    -4.0    3.1    8.6
C     8.4    3.2    4.4
H     5.6   -3.2   -7.6
C    -3.7    9.3    0.1
H     7.9    4.0   -4.7
H    -8.1    4.0    4.4
H    -0.9   -9.5   -3.2
C    -3.6   -3.2    8.8
H    -3.6    9.3    1.2
C    -8.2   -3.2   -4.8
I     0.0   -3.2   -9.6
H     3.3    4.0    8.6
I     7.2    6.7    2.3
H    -3.5    2.3   -9.2
H    -5.6    8.5    0.1
I     2.7    6.8   -7.1
H     3.7   -9.4   -1.5
N    -3.9    3.1   -8.9
N     4.1    9.3   -0.3
H     3.6   -4.1   -8.6
N    -8.5    3.1   -4.7
I    -7.1   -6.8   -2.8
H     4.0    9.3   -1.4
N     8.7   -3.2   -4.4
H     5.7    2.3    8.2
H     3.3    4.0   -8.8
N     0.7   -9.4    4.0
C    -5.4    3.1    8.2
H     6.0    8.4   -0.3
N    -5.1   -3.2    8.4
H     8.2   -4.1   -4.9
N    -9.0   -2.4    4.5
N    -0.5    9.4   -4.4
H     3.6   -4.1    8.9
C    -0.8   -9.4    4.4
H     8.3    3.2    5.5
C    -0.8   -9.5   -4.3
N     4.1   -3.2   -9.0
C    -5.1   -9.1   -0.5
C     3.8    3.1   -9.2
H    -3.2   -4.1   -9.1
H    -5.5   -2.4   -8.6
N     5.2    3.1    8.6
H     6.0   -2.3    8.4
H    -6.0   -8.7    0.1
P     0.1    6.3    8.5
N     0.6   -9.5   -4.7
C     0.9    9.4   -4.8
H    -8.2   -3.2   -5.9
N     9.3   -2.4    4.5
P     0.1   -6.3    8.5
H    -3.5    4.0   -9.3
N    -5.1    9.3   -0.3
H    -8.5    3.1   -5.7
H    -5.9    2.2    8.6
H    -3.2   10.2   -0.3
H    -5.5   -2.4    8.8
I     2.7   -0.5   10.3
H    -9.8   -2.0    3.9
N     5.2    3.1   -8.9
H     5.7    3.9    8.2
H    -5.2    9.3   -1.4
H     3.6   10.2    0.1
C     5.5   -3.2   -8.7
H     9.1   -4.4    3.7
H     9.0   -2.7    5.4
C     5.5    9.3    0.1
H    -5.9    2.2   -8.8
H    -9.8   -3.3   -3.4
H     9.9    3.2    3.0
N    -5.1   -3.2   -9.0
H    -9.2   -4.4    3.7
H    -3.9    3.1    9.7
C     5.5   -3.2    8.8
H     5.6    9.3    1.2
P     0.1    6.3   -8.9
H    -0.9   -9.4    5.5
H    -5.5   -9.4   -1.5
H    -4.3  -10.0    1.1
P     0.1   -6.3   -8.9
I    -7.1    5.8    6.0
H    -3.5   -3.2    9.9
H   -10.1    3.1   -3.2
H    -5.5   -4.1   -8.6
I    -2.5    0.4  -10.7
I     6.6    5.8    6.7
P    -9.2    6.2   -0.2
H     0.7   -9.5   -5.7
P     9.2    6.2   -0.2
N     9.8    3.2    4.0
H     5.7    2.3   -9.2
H     6.0   -4.1    8.4
N     0.1   10.2    4.5
H    -1.2  -10.3    4.0
I    -4.4   -9.6    3.6
N    -9.7   -3.2   -4.4
H     1.0    9.4   -5.9
C    -5.4    3.1   -9.2
H    10.3   -3.3    2.8
H     6.0   -2.3   -9.1
I     4.6    9.4   -3.9
H    -9.4   -2.7    5.4
H    10.0   -1.7    4.6
P    -9.2   -6.4   -0.2
H    -5.8    4.0    8.6
I    -4.6    9.4   -3.9
H    -5.5   -4.1    8.9
P     9.2   -6.4   -0.2
H     1.1  -10.3   -4.3
C     9.9   -3.6    3.8
H     4.9  -10.0    1.1
I     4.7   -9.6    3.6
H     1.1  -10.3    4.4
I    -6.5   -5.9   -7.1
H     1.4   10.3   -4.4
N     4.6  -10.3    0.1
N    -4.6  -10.3    0.1
I    -1.9   -0.6   11.1
C   -10.0    3.1   -4.3
N     9.8    3.1   -4.7
H    -0.2    9.9    5.4
H    -0.6   10.6    3.9
H     4.0   -3.2  -10.1
H    -1.0   10.2   -4.8
I   -11.1   -0.5    2.3
H    -5.8    4.0   -8.8
I     7.3   -5.8   -6.4
C   -10.0    3.2    4.4
H    10.3    2.3   -4.3
H    -3.8  -10.7   -0.4
H   -10.4    2.3    4.0
H     3.7    3.1  -10.3
H    10.3    2.3    4.4
H     5.3    3.1    9.7
H    -1.3  -10.4   -4.7
I     4.5    9.4    4.9
H   -10.2   -2.4   -4.8
I    -7.1   -6.8    6.0
H     5.7    4.0   -9.3
I    11.2    0.5   -2.7
I    -4.7    9.4    4.9
H    -5.6   10.2    0.1
H     6.0   -4.1   -9.1
C    10.1   -3.2   -4.8
H   -10.4    2.2   -4.7
I     6.7   -6.9    6.7
H     3.9  -11.0    0.3
H    10.6   -2.3   -4.4
I     2.0    0.4  -11.5
I    -4.4   -9.5   -5.3
I    -6.5    6.8   -7.1
H    -5.2   -3.2  -10.1
H    10.3    4.0   -4.3
H     5.6   -3.2    9.9
I     7.3    6.8   -6.4
H     9.9    3.1   -5.7
H     6.0   10.2   -0.3
H   -10.4    4.1    4.0
I     4.8   -9.5   -5.3
H   -10.1    3.2    5.5
H     0.8   10.9    4.6
H    10.3    4.0    4.4
I   -11.7    0.4   -2.0
H   -10.2   -4.1   -4.9
H     5.4  -10.7   -0.4
I    11.9   -0.5    1.6
H     1.0   -3.2   11.6
H    -5.4    3.1  -10.3
H   -10.5    4.0   -4.7
H    10.6   -4.1   -4.4
H    10.2   -3.2   -5.9
I    -6.5   -0.5   10.3
I     2.7   -5.9   10.4
H     0.7    3.1   11.8
H    -5.3  -11.0    0.3
H    10.7   -4.0    4.4
I    -0.0    9.4    7.9
H     8.0   -8.5    4.0
H    -7.6    8.6    4.4
H    -7.8    8.5   -4.4
H    -3.2    8.5    8.4
H    -0.2   -2.7  -12.1
H    -3.5   -8.7    8.2
H    -0.9    3.2  -12.0
H     3.7   -9.5    7.1
I    -1.9   12.1    2.3
I    -2.5    5.8  -10.8
I     2.7   12.1    1.6
I    -9.2   -3.2    7.9
I     9.2   -3.2    7.9
P    -9.1   -0.0    8.6
P     0.0   12.6   -0.2
H    -8.1   -8.6   -4.3
H     4.0    9.4    7.4
H   -12.4   -2.4   -0.3
I     0.2   -9.5   -8.2
H    -8.0   -8.6    4.4
H     7.9   -8.6   -4.7
I    -2.5  -12.2   -2.0
I    -9.0    3.1   -8.2
H    -3.6    9.4   -7.6
I     2.1  -12.1   -2.7
I    11.1    0.4    5.9
I     6.6    0.4  -10.7
H     3.3   -8.6    8.6
