         400
 sphere cut out from bulk 
H     1.0   -1.3   -0.3
I    -0.6   -0.1   -1.7
H     1.5   -1.4    1.3
N     1.7   -1.8    0.4
H    -1.4    0.2    2.4
H     2.6   -1.4    0.0
H    -2.8    0.1    1.4
N    -2.4    0.6    2.2
H    -2.3    1.6    1.9
I     0.9   -0.1    3.3
C     1.6   -3.3    0.3
H     0.6   -3.6    0.7
H     1.7   -3.6   -0.7
H     2.0    0.7   -3.6
H     0.7    4.1   -0.0
P    -2.9    2.3   -2.2
I    -2.3    3.7    0.5
H     2.4   -3.6    1.0
P    -3.0   -2.2   -2.5
H     0.5    0.6   -4.4
I     4.6   -0.0   -0.5
I    -4.6   -0.0   -0.5
H     1.8    4.1    1.4
I    -2.4   -4.0    0.1
C    -3.2    0.4    3.4
C     1.7    4.5    0.3
H     2.5    4.1   -0.3
C     1.5    0.7   -4.5
H    -3.3   -0.7    3.6
H    -2.8    1.0    4.2
H     2.0   -1.4   -4.8
H    -4.2    0.8    3.2
I    -0.8    3.8   -4.1
H     1.8    1.6   -5.1
N     2.1   -0.5   -5.3
I     3.4   -3.5   -3.2
I    -3.7    0.1   -4.6
H     5.0    0.8    3.2
I    -1.2   -4.0   -4.2
N     1.7    5.9    0.4
P     1.6    2.2    5.6
I    -1.0   -3.9    4.7
P     1.5   -2.3    5.6
I     3.7    4.0   -3.0
H     3.1   -0.3   -5.4
I    -1.1    3.7    4.9
I     3.5   -3.8    3.7
H     1.6   -0.5   -6.2
I     3.5    3.9    3.8
H     1.0    6.3    1.0
H     6.4    0.1    1.4
H     1.5    6.4   -0.6
H    -6.6   -1.4    0.0
H    -2.4   -6.2   -1.4
C     6.0    0.4    3.4
H     2.6    6.3    0.7
P    -3.1   -5.4    2.9
P    -3.0    5.5    3.1
H     5.9   -0.7    3.6
P     6.2   -2.2   -2.5
P     6.3    2.3   -2.2
N     6.8    0.6    2.2
I     5.5    0.1   -4.6
H     6.9    1.6    1.9
H    -3.0    1.4   -6.6
I     3.9   -0.0    6.3
I    -5.5    4.0   -3.0
I    -0.1   -0.0    7.5
P     1.6   -5.5   -4.9
I    -5.8   -3.5   -3.2
P     1.7    5.5   -5.0
N    -2.3   -7.2   -1.5
N    -7.5   -1.8    0.4
H     6.4    1.0    4.2
H    -1.3   -7.5   -1.6
H    -6.8   -3.6    1.0
I    -5.7   -3.8    3.7
I    -5.7    3.9    3.8
I     6.8   -4.0    0.1
H    -6.7    4.1   -0.3
I     6.9    3.7    0.5
H    -3.0    6.7   -2.9
H    -7.7   -1.4    1.3
I    -0.5    7.5    2.5
H    -2.0    3.6   -6.9
H    -7.2    0.7   -3.6
H     7.8    0.2    2.4
H    -6.1   -0.3   -5.4
I     0.9    7.7   -2.6
H    -2.7   -7.7   -0.7
I     1.0   -7.7   -2.6
H    -1.9    1.4   -7.9
H    -1.4    8.0   -1.6
N    -2.8    1.8   -7.5
I    -5.3   -0.0    6.3
C    -7.6   -3.3    0.3
H    -2.8    7.7   -0.7
H    -2.9   -3.9   -6.7
I    -0.4   -7.9    2.5
H    -7.5   -3.6   -0.7
I     0.1    0.0   -8.3
H    -2.1    1.4    7.9
H    -8.2   -1.3   -0.3
H    -2.6   -7.1   -3.6
H     1.4    6.0    5.7
H    -7.4    4.1    1.4
H    -3.7    1.3    7.6
H    -2.9    3.6    7.3
C    -2.8    3.3   -7.5
P     6.1   -5.4    2.9
C    -3.0   -7.6   -2.8
N    -2.4    8.2   -1.5
I     8.6   -0.1   -1.7
C    -7.5    4.5    0.3
H    -7.2   -1.4   -4.8
H    -3.8    3.6   -7.1
I     2.4    3.9   -7.5
H    -4.1   -7.4   -2.7
H     1.5   -6.4    5.9
C    -3.1    7.8   -2.8
H     0.4   -7.3    4.9
P     6.2    5.5    3.1
H    -2.3   -4.1    7.5
N    -7.1   -0.5   -5.3
I    -4.5    7.6    1.2
I     2.2   -4.0   -7.7
C    -7.7    0.7   -4.5
N    -3.0    1.8    8.2
I     4.7    7.6    1.2
I    -8.3   -0.1    3.3
H     2.5    7.1    4.9
H    -3.5    1.4   -8.2
I    -4.4   -7.9    1.2
H    -6.6    6.3    0.7
H    -7.4    1.6   -5.1
H     6.2    1.4   -6.6
H     1.1   -9.1    1.0
H     1.6   -9.1   -0.6
C     1.9    7.0    5.8
I     4.8   -7.9    1.2
H    -8.6   -3.6    0.7
I     2.0   -4.0    8.1
C    -3.0   -4.4   -7.7
H     6.8   -6.2   -1.4
I     2.2    3.8    8.2
H     5.1   -7.4   -2.7
N     1.0   -7.3    5.8
C    -3.1    3.2    8.3
H    -8.5    4.1   -0.0
H    -2.7    8.3   -3.6
H    -4.2    8.1   -2.7
H     5.5    1.3    7.6
H     0.3    8.1    4.9
H    -2.1   -4.1   -8.3
H     2.7   -9.1    0.7
H     6.2    6.7   -2.9
N    -7.5    5.9    0.4
H    -4.1   -4.1    7.6
H     5.4    3.6   -7.1
H    -2.5    9.2   -1.4
H    -2.9   -8.7   -2.9
N     1.8   -9.5    0.4
H    -2.7    3.7   -8.5
H     1.4   -0.6    9.6
H    -2.1   -6.2   -7.2
P    -7.6    2.2    5.6
C    -3.2   -4.4    8.1
P    -7.7   -2.3    5.6
H    -7.6   -0.5   -6.2
H    -8.7    0.6   -4.4
H    -3.2    1.3    9.2
H     5.0    8.1   -2.7
H    -2.2    3.6    8.9
H    -3.9   -4.1   -8.2
I     8.0   -4.0   -4.2
I    -3.6   -7.6    5.3
H     0.4   -7.4    6.6
I    -9.8   -0.1   -1.7
H     6.3   -3.9   -6.7
H    -7.7    6.4   -0.6
N     0.9    8.1    5.8
N    -3.0   -5.9   -7.6
H     2.6   -8.3    4.9
H     2.5    7.0    6.7
H     5.1   -4.1    7.6
H    -3.7   -6.2   -7.0
I     8.4    3.8   -4.1
H     6.4    7.7   -0.7
H     5.7    1.4   -8.2
H     6.5   -7.7   -0.7
N     6.4    1.8   -7.5
N     6.9   -7.2   -1.5
I    -3.7    7.8    5.3
I     8.1    3.7    4.9
I     3.9   -7.6   -5.6
I    -0.2    7.7   -6.7
C     6.2   -7.6   -2.8
I     8.2   -3.9    4.7
H    -4.0    3.5    8.7
I    -0.1   -7.7   -6.7
H    -3.3   -6.4    7.3
H    10.2   -1.3   -0.3
C     6.1    7.8   -2.8
H     6.3    3.6    7.3
I     4.1    0.0   -9.5
I     3.8    7.9   -5.6
H     6.6   -7.1   -3.6
H     0.3    8.0    6.6
C     6.4    3.3   -7.5
H    -3.1   -4.0    9.1
H    -8.2    6.3    1.0
C     2.0   -8.4    5.8
N     6.2    1.8    8.2
H     9.8   -3.6    0.7
H     5.3   -4.1   -8.2
P    -7.5    5.5   -5.0
P     1.8    2.2  -10.2
P     1.8   -2.2  -10.2
H     7.2    3.6   -6.9
I    10.1   -0.1    3.3
P    -7.6   -5.5   -4.9
N    -3.2   -5.9    8.2
H     9.7    0.6   -4.4
N     1.9   -0.5   10.5
H     5.2    3.5    8.7
H     9.9    4.1   -0.0
H     7.1    1.4    7.9
N     6.8    8.2   -1.5
I    -5.3   -7.6   -5.6
I    -5.1    0.0   -9.5
H     2.9   -0.4   10.4
H     5.5   -6.2   -7.0
C     6.1    3.2    8.3
C     6.2   -4.4   -7.7
I     5.6   -7.6    5.3
P    -2.9  -10.0    3.1
H     7.3    1.4   -7.9
H     1.4    9.0    5.9
H    10.7   -1.4    1.3
I    -6.8    3.9   -7.5
I     5.5    7.8    5.3
H   -10.6    0.2    2.4
P    -3.2   10.0    2.9
H    -6.7    7.1    4.9
H     1.5    1.6   10.7
H    -2.3   -6.3    8.6
H     6.9   -4.1    7.5
H     7.9   -7.5   -1.6
C     6.0   -4.4    8.1
I    -5.4    7.9   -5.6
N    10.9   -1.8    0.4
H    -3.1   -6.3   -8.5
H     6.0    1.3    9.2
H     2.6   -8.4    6.7
I    -7.0   -4.0   -7.7
H     1.5   -9.4    5.7
C     1.8  -11.0    0.3
H     6.3   -8.7   -2.9
H     6.5    8.3   -3.6
H    -6.5   -9.1    0.7
P     1.5    9.9   -4.9
P     1.8   -9.9   -5.0
H     1.7   -1.4   11.0
H     7.8    8.0   -1.6
C    10.8   -3.3    0.3
H     6.5    3.7   -8.5
H     0.8  -11.3   -0.0
H     5.9   -6.4    7.3
C     1.3    0.7   11.3
H     0.2    0.5   11.4
N     6.2   -5.9   -7.6
H    -7.8    6.0    5.7
I   -10.0    3.8   -4.1
H     6.7    9.2   -1.4
I    -7.0    3.8    8.2
I    -0.9    3.7  -10.9
H    -4.0   -6.3    8.8
H    10.9   -3.6   -0.7
I    -8.2   -7.7   -2.6
H     1.9  -11.3    1.4
I    -7.2   -4.0    8.1
I    -8.3    7.7   -2.6
H     2.6  -11.3   -0.3
C    -7.3    7.0    5.8
H    -7.7   -6.4    5.9
H     7.1   -4.1   -8.3
H     6.1   -4.0    9.1
H    -6.6   -8.3    4.9
I    -2.5   11.4    0.1
C    10.7    0.7   -4.5
I    -0.8   -3.9  -11.1
I     8.7    7.5    2.5
C    10.9    4.5    0.3
N     6.0   -5.9    8.2
I     9.1   -0.0    7.5
H   -11.5    1.6    1.9
H    -6.7    7.0    6.7
H     0.6   -7.4   -9.2
H    11.2    0.7   -3.6
N   -11.6    0.6    2.2
H    -7.6   -9.1   -0.6
H     2.7    7.1   -9.1
I    -3.9    0.1   11.2
H    -2.2    9.2   -7.2
H    11.0    4.1    1.4
H     1.6    6.1  -10.1
H     7.1   -6.2   -7.2
H     7.0    3.6    8.9
H    11.8   -1.4    0.0
H     0.6   11.8    0.7
H     1.7   -6.4   -9.9
I   -10.4   -4.0   -4.2
H    -2.5    1.0  -11.6
I    -0.4    7.7    9.1
I    -2.2  -11.7    0.5
I    -9.3   -0.0    7.5
I   -10.2   -3.9    4.7
H     1.6   11.8   -0.7
I    -0.3   -7.8    9.1
I   -10.3    3.7    4.9
P     6.0   10.0    2.9
N    -7.4   -9.5    0.4
H     5.2   -6.3    8.8
H     2.3   11.8    1.0
I     8.8   -7.9    2.5
H    10.2    6.3    1.0
I   -11.5    3.7    0.5
H   -12.0    0.1    1.4
H    -3.4    9.0    7.3
H    -3.8    9.2   -7.0
H    -6.3   -0.4   10.4
H     0.5    8.0   -9.2
P     6.3  -10.0    3.1
H    11.0    1.6   -5.1
H    -8.1   -9.1    1.0
H    11.2   -1.4   -4.8
H     6.1   -6.3   -8.5
P     1.5    5.5   10.8
H    11.6   -3.6    1.0
I    -1.3   11.4   -4.2
C     1.5   12.2    0.3
P     1.3   -5.5   10.9
I    -9.1    0.0   -8.3
I   -11.6   -4.0    0.1
P    10.7   -2.3    5.6
I    -1.4   -4.1   11.6
P    10.8    2.2    5.6
I    -1.1    3.7   11.7
H    -7.8   -0.6    9.6
I    -0.7  -11.7   -4.1
I     5.3    0.1   11.2
H     1.8    0.7   12.2
H    11.7    4.1   -0.3
C     2.1    7.0  -10.0
I     3.8  -11.4   -3.0
N    10.9    5.9    0.4
N     1.2   -7.3  -10.0
N    -8.2   -7.3    5.8
H    -8.8   -7.3    4.9
H    10.7    6.4   -0.6
N    11.3   -0.5   -5.3
I     9.3    0.0   -8.3
I    -1.1   11.5    4.7
C    -7.2   -8.4    5.8
H    10.8   -0.5   -6.2
I     1.1   -0.0  -12.5
H    -3.0   -0.6  -12.1
P   -12.1    2.3   -2.2
N    -3.1    9.6   -7.6
I    -9.7    7.5    2.5
H    -6.6   -8.4    6.7
I     3.4   11.6    3.7
H     2.8   -8.4   -9.1
P   -12.2   -2.2   -2.5
I     3.6  -11.6    3.8
I    -9.6   -7.9    2.5
H     6.9   -6.3    8.6
H     5.4    9.2   -7.0
H   -12.0    1.0    4.2
I     3.3   11.9   -3.2
I    -1.0  -11.7    4.9
C    -3.0    0.4  -12.4
P    -7.4    2.2  -10.2
H    -2.4    9.1    8.6
P    -7.4   -2.2  -10.2
N    -7.3   -0.5   10.5
H    -3.2    9.1   -8.5
C   -12.4    0.4    3.4
N     1.1    8.1  -10.0
N    -8.3    8.1    5.8
H    -8.9    8.1    4.9
I    10.1    7.7   -2.6
H   -10.5   -7.5   -1.6
I    -5.4  -11.4   -3.0
H     5.8    9.0    7.3
N    -3.3    9.5    8.2
H   -12.5   -0.7    3.6
P    10.8   -5.5   -4.9
I    10.2   -7.7   -2.6
H     9.6   -7.3    4.9
