         400
 sphere cut out from bulk 
H     0.9   -0.4    1.9
I    -0.8   -2.1    0.5
I    -0.3    2.4    0.5
P    -2.8    0.5   -0.0
H     2.0    0.7   -1.8
N     1.8   -0.4    2.5
H     2.6   -0.3    1.9
H     0.2    1.0   -3.4
C     2.2    0.6   -2.9
H     1.6    1.7    2.8
H     1.8   -1.3    3.0
H     2.1   -0.5   -3.2
C     1.6    0.8    3.4
I    -2.2    0.4   -3.2
N     1.1    1.3   -3.6
I     3.7   -1.6   -0.3
H     0.7    0.7    4.0
H    -2.2   -2.8   -2.2
H     1.2    2.3   -3.3
P     1.7   -4.2    0.0
H    -2.4   -3.0    2.3
H     3.2    1.0   -3.2
I    -3.4    0.5    3.2
H     2.5    0.8    4.1
H     1.3    1.3   -4.6
I     4.1    2.9   -0.4
P     1.6    4.9    0.0
H    -3.0    3.7    2.2
C    -2.7   -3.8   -2.6
H    -1.5    4.0    3.1
I     1.1   -4.2   -3.2
I    -5.2   -1.6   -0.3
N    -2.8   -3.5    3.1
H    -2.1    4.5   -2.5
I     2.3   -3.9    3.2
H    -2.4   -3.0    4.0
H    -2.0   -4.6   -2.5
I    -4.8    2.9   -0.4
H    -3.6   -4.0   -2.1
C    -2.6    4.2    3.1
I     1.0    4.9   -3.2
H    -2.1   -3.3   -4.5
H    -3.9   -3.3    3.1
H    -1.4   -5.0    3.1
N    -3.0   -3.5   -4.0
P     6.1    0.5   -0.0
H    -3.7   -2.8   -4.2
H    -3.0    3.7    4.0
C    -2.5   -4.9    3.1
I     5.5    0.5    3.2
I    -1.0   -2.2    6.0
I    -0.4    2.5    6.0
H    -2.9   -5.4    2.2
C    -2.8    5.3   -2.6
I     2.2    5.2    3.2
H    -6.3   -0.3    1.9
H    -5.7    1.0   -3.2
I    -0.2   -6.6    0.5
H    -3.7    5.1   -2.1
H     5.0   -3.3    3.1
H     5.2   -4.0   -2.1
H    -2.5    6.1    2.3
I     3.5   -1.4   -5.8
P    -2.9    0.5    6.3
P    -2.9    0.6   -6.4
H    -2.3    6.2   -2.2
N    -2.9    5.6    3.1
I    -0.9    7.0    0.5
H    -6.8    0.7   -1.8
H    -3.4   -4.4   -4.5
I    -1.0   -2.1   -6.7
I    -0.4    2.5   -6.7
H     5.2   -2.8   -4.2
H     5.8    3.7    2.2
C    -6.7    0.6   -2.9
H    -2.9   -5.4    4.0
H    -3.5    4.7   -4.5
I     6.7    0.4   -3.2
I     4.2   -6.2   -0.4
H    -6.8   -0.5   -3.2
H     6.4   -3.0    2.3
N    -3.1    5.5   -4.0
H     6.6   -2.8   -2.2
H     5.1    5.1   -2.1
N    -7.1   -0.4    2.5
H    -6.4    0.8    4.1
H     1.3   -6.7   -3.3
N     6.0   -3.5    3.1
H    -4.0    5.7    3.1
P     1.6   -4.0   -6.3
C     6.2   -3.8   -2.6
H    -2.5    6.1    4.0
H    -2.2    5.8   -4.5
P     1.6   -4.0    6.4
H    -7.0   -1.3    3.0
I    -4.7   -6.2   -0.4
I     4.1    3.1   -5.9
I     3.5   -1.5    6.9
N     5.9   -3.5   -4.0
H    -7.3    1.7    2.8
H     5.8    3.7    4.0
C    -7.2    0.8    3.4
I    -5.3   -1.4   -5.8
H     1.7   -7.4    2.8
C     6.3    4.2    3.1
H     6.4   -3.0    4.0
H    -7.9   -0.4    1.9
H     4.9    5.7    3.1
I    -4.8    3.1   -5.9
I    -6.5   -3.9    3.2
P    -7.1   -4.2    0.0
H     1.2    1.2    8.1
P     1.5    5.1    6.4
P     1.5    5.1   -6.3
I     3.6    7.5   -0.3
H     5.9   -5.4    2.2
H     5.5   -4.4   -4.5
I     8.1   -2.1    0.5
H     5.4    4.7   -4.5
H    -3.7    6.3   -4.2
I     4.1    3.0    6.8
C     6.1    5.3   -2.6
H     6.8    4.5   -2.5
H     1.7    7.8    3.0
H     6.9   -4.6   -2.5
N    -7.7    1.3   -3.6
C     6.4   -4.9    3.1
N     1.2   -7.8   -3.6
H    -7.7    2.3   -3.3
P     6.0    0.5    6.3
N     5.9    5.6    3.1
H     0.7    0.7   -8.7
P    -7.2    4.9    0.0
P     6.0    0.6   -6.4
H     6.7   -3.3   -4.5
H     0.3   -8.1   -3.4
I    -5.3   -1.5    6.9
H     2.1   -8.4   -1.8
I    -4.8    3.0    6.8
H     0.9    8.6    1.9
I    -0.3   -6.6    6.0
I     8.6    2.4    0.5
H     5.9   -5.4    4.0
H     7.4    4.0    3.1
N     5.8    5.5   -4.0
H    -7.6    1.3   -4.6
P    -2.7   -8.6   -0.0
H     2.5    0.8   -8.6
I    -6.6    5.2    3.2
H    -2.1   -3.3    8.2
H     6.4    6.1    2.3
H    -8.1    0.7    4.0
H     5.1    6.3   -4.2
I    -5.3    7.5   -0.3
C     1.7   -8.3    3.4
H     1.3   -7.8   -4.6
I    -1.1    6.9    6.0
N     1.7    8.7    2.5
N     1.1    1.3    9.1
C     2.3   -8.5   -2.9
H     6.5    6.2   -2.2
H     3.3   -8.1   -3.2
H     2.5    8.8    1.9
H     0.8   -8.4    4.0
H    -8.7    1.0   -3.4
I    -0.3   -6.5   -6.7
H     2.0    8.6   -3.2
H     0.2    0.9    9.3
I     4.2   -6.0   -5.9
I    -7.8   -4.2   -3.2
C     1.7    0.8   -9.3
I    -9.2    2.4    0.5
H     7.4   -5.0    3.1
I    -2.1   -8.7   -3.2
H    -2.4   -3.0   -8.7
H     2.6   -8.3    4.1
H     6.3    6.1    4.0
I    -4.7   -6.0   -5.9
H     9.1    1.0   -3.4
H     1.2    2.3    9.4
H    -3.7   -2.8    8.5
I    -1.1    7.0   -6.7
H     1.0   -9.5    1.9
I    -3.3   -8.6    3.2
H     2.1   -0.5    9.5
I    -7.9    4.9   -3.2
I    -2.2    0.3    9.5
I    -9.6   -2.1    0.5
N    -3.0   -3.6    8.7
H     6.7    5.8   -4.5
H    -3.0    3.7   -8.7
H     1.8   -1.2   -9.7
H     2.7   -9.4    1.9
N     1.8   -9.5    2.5
H    -3.4   -4.4    8.3
P    -2.8    9.6   -0.0
H     9.8   -0.4    1.9
I     4.1   -6.0    6.8
C     2.2    0.5    9.8
H    -3.5    4.6    8.3
H     3.2    0.9    9.5
H     1.9    9.8   -1.8
I    -3.4    0.5   -9.5
I     7.9   -2.2    6.0
H     1.6    1.8   -9.9
I     3.5    7.6   -5.8
I    -2.3    9.4   -3.2
H    -2.2    5.7    8.2
I    -4.7   -6.0    6.8
C     2.1    9.6   -2.9
H     2.2   -9.6   -3.2
N     1.8   -0.3  -10.2
H    -5.6   -8.1   -3.2
H     5.2   -2.8    8.5
P    -7.2   -4.0   -6.3
H     9.6    0.7    4.0
P    -7.2   -4.0    6.4
I     2.3   -3.8   -9.5
I     1.1   -4.3    9.6
H    -1.5    4.1   -9.6
N    -2.8   -3.4   -9.6
H     0.6    9.7    4.0
C     1.6    9.9    3.4
I     7.9   -2.1   -6.7
P     6.2   -8.6   -0.0
H     0.1   10.1   -3.4
H    -2.9   -5.3   -8.7
I    -3.5    9.5    3.2
I     8.0    7.0    0.5
H    -7.2   -7.4    2.8
I     8.5    2.5    6.0
H    -7.6   -6.7   -3.3
N    10.0    1.3   -3.6
H    -6.3    0.8   -8.6
N    -3.1    5.5    8.7
I     5.6   -8.6    3.2
I     1.0    4.8    9.6
C    -2.6    4.2   -9.6
I     3.4    7.6    6.9
H    -3.9   -3.3   -9.6
H    10.0    2.3   -3.3
H     5.5   -4.4    8.3
H     5.4    4.6    8.3
H     1.0   -0.4  -10.8
H    -1.4   -5.0   -9.6
I     8.7   -6.6    0.5
N    10.6   -0.4    2.5
H    -6.7   -8.4   -1.8
H    -2.5    6.1   -8.7
P    -7.3    5.1   -6.3
P    -7.3    5.1    6.4
H     2.4    9.9    4.1
H     1.9  -10.4    3.0
H     3.1   10.0   -3.2
P    -2.8   -8.5   -6.4
H    10.5    1.7    2.8
H    -7.1    7.8    3.0
I     5.5    0.5   -9.5
H    -6.4    8.8    1.9
P    -2.8   -8.6    6.3
I    -5.4    7.6   -5.8
C    -2.5   -4.9   -9.6
N     1.1   10.4   -3.6
H    10.9    0.7   -1.8
H    -2.4   -3.0  -10.4
I     2.3    5.3   -9.5
C    10.5    0.8    3.4
N     5.9   -3.6    8.7
H     6.7   -3.3    8.2
H     2.0    0.6   10.9
H     2.6   -0.3  -10.8
H     5.8    3.7   -8.7
I     8.5    2.5   -6.7
C    -6.6   -8.5   -2.9
H    -5.7    0.9    9.5
H    -2.3   -2.9   10.5
H    -6.3   -8.3    4.1
C    -2.7   -3.8   10.1
I    -0.7  -11.1    0.5
H    -7.6    1.2    8.1
H    10.7   -1.3    3.0
H    10.1    1.3   -4.6
H    -3.8    6.3    8.5
H     6.4   -3.0   -8.7
H     1.5   10.8    2.8
I    -9.1   -6.6    0.5
I    10.0   -4.2   -3.2
I    -9.2    2.5    6.0
H     5.0   -3.3   -9.6
P     6.0    9.6   -0.0
H     1.3   -7.9    8.1
I     3.8  -10.7   -0.3
H    -2.1    4.4   10.2
P    10.6   -4.2    0.0
H    -6.2   -9.4    1.9
H     1.2   10.4   -4.6
I     5.4    9.5    3.2
H    -2.0   -4.6   10.2
H    -6.8    8.6   -3.2
H    11.0   -0.5   -3.2
I     9.9    4.9   -3.2
C    11.1    0.6   -2.9
N    -7.6   -7.8   -3.6
C    -7.1   -8.3    3.4
I     6.7   -8.7   -3.2
N    -2.9    5.7   -9.6
I   -11.1    0.4   -3.2
H    -3.0    3.8  -10.5
I    -0.4   11.5    0.5
H   -10.4    4.0    3.1
N    -7.2    8.7    2.5
I    -5.4    7.6    6.9
P    10.5    4.9    0.0
I     6.6    0.3    9.5
P   -11.6    0.5   -0.0
H    11.5   -0.3    1.9
H     1.2   -6.8    9.4
H   -11.1   -2.8   -2.2
I    -9.2    2.5   -6.7
H    -6.8   -0.5    9.5
I    -9.9   -2.2    6.0
H     5.1    6.3    8.5
C    -2.8    5.3   10.1
C    -7.2    0.8   -9.3
H    -7.5   -7.8   -4.6
N     5.8    5.5    8.7
H     5.9   -5.3   -8.7
N     6.0   -3.4   -9.6
I    -5.1  -10.7   -0.3
H    -3.9    5.8   -9.6
H   -10.3   -5.0    3.1
P    -3.0    9.6    6.3
C    -6.7    0.5    9.8
H   -11.3   -3.0    2.3
H    -8.1    0.7   -8.7
P    -3.0    9.7   -6.4
I     6.6    9.4   -3.2
H    -8.0    8.6    1.9
H     1.1   11.4   -3.3
H    -3.7   -4.0   10.7
H     6.6    5.7    8.2
I    -9.7    7.0    0.5
I     7.8    6.9    6.0
H    -5.8   10.0   -3.2
N    -7.7    1.3    9.1
H    -7.0   -1.2   -9.7
N    -7.0   -9.5    2.5
N     1.2   -7.8    9.1
H   -10.9   -4.6   -2.5
H    -6.7   -9.6   -3.2
H     0.8   -8.4   -8.7
H    -6.9    9.8   -1.8
H   -11.0    4.5   -2.5
I    -6.5   -3.8   -9.5
I    -9.8   -2.1   -6.7
H    -2.9   -5.3  -10.5
C    -6.8    9.6   -2.9
H    11.4    0.8    4.1
C     6.3    4.2   -9.6
H     2.6   -8.2   -8.6
H     4.9    5.8   -9.6
P     6.1   -8.5   -6.4
P     6.1   -8.6    6.3
H    -8.6   -8.1   -3.4
I    11.2   -3.9    3.2
H    -2.2  -11.9   -2.2
H    -8.1   -8.4    4.0
H    -2.5    6.1  -10.4
H   -11.0   -3.3   -4.5
H    -7.7    2.3    9.4
H   -11.3   -3.0    4.0
H    -7.3    1.8   -9.9
I     8.6   -6.6    6.0
I    -0.8   -2.0  -12.2
H    -3.7    5.1   10.7
H     0.3   -8.1    9.3
H     6.4    6.1   -8.7
H     1.7   -7.3   -9.9
C   -11.6   -3.8   -2.6
N    -7.1   -0.3  -10.2
H    -2.3    6.2   10.5
I     7.8    7.0   -6.7
C     6.2   -3.8   10.1
H    -6.2   -0.3  -10.8
H    -6.4    9.9    4.1
H    -7.8   -9.5    1.9
H    12.0    1.0   -3.2
I    -0.3    2.5  -12.2
C     6.4   -4.9   -9.6
H     5.2   -4.0   10.7
H    -2.3  -12.1    2.3
C     1.7   -8.2   -9.3
I     3.6  -10.5   -5.8
H     5.9    3.8  -10.5
C   -11.5    4.2    3.1
H     6.5   -3.0  -10.4
H     1.8    7.9   -9.7
N     6.0    5.7   -9.6
N   -11.7   -3.5    3.1
H    10.1   -6.7   -3.3
