         400
 sphere cut out from bulk 
P     0.3   -0.0    0.0
I    -2.3    2.0   -0.5
I    -1.6   -2.6   -0.5
I    -0.4   -0.1    3.1
I     1.0    0.1   -3.1
I     2.1    2.6    0.5
I     2.8   -2.0    0.5
H     0.1   -3.3    2.3
H     0.4    3.3   -2.3
H    -0.0   -3.6   -2.3
H    -2.7   -0.9   -3.1
H     0.6    3.6    2.3
H    -2.9   -0.7    3.1
H    -3.8    1.0   -2.3
H     3.3    0.9    3.1
H    -3.9    1.3    2.3
H     3.5    0.7   -3.1
C     0.0    3.7   -3.1
C     0.5   -3.7    3.1
H    -1.1    3.6   -3.1
H    -4.2   -1.3   -2.3
H     4.3   -1.0    2.3
C    -3.8   -0.9   -3.1
H    -4.4   -1.0    2.3
H     1.6   -3.6    3.1
H    -0.9    3.9    3.1
N    -4.0   -0.6    3.1
N     0.2    4.0    3.1
N     0.4   -4.0   -3.1
H     4.5   -1.3   -2.3
H     0.1   -3.3    4.0
H     0.4    3.3   -4.0
H     1.4   -3.9   -3.1
N    -4.2    0.6   -3.1
H    -0.0   -3.6   -4.0
H     0.6    3.6    4.0
C    -4.3    0.9    3.1
H     4.8    1.3    2.3
C     4.4    0.9    3.1
H     4.9    1.0   -2.3
N     4.5    0.6   -3.1
H    -3.8    1.0   -4.0
N     4.7   -0.6    3.1
H    -3.9    1.3    4.0
C     4.9   -0.9   -3.1
H     4.3   -1.0    4.0
H    -4.2   -1.3   -4.0
H    -4.4   -1.0    4.0
N     0.2   -5.2    3.1
N     0.4    5.2   -3.1
H    -0.0    5.6   -2.3
H     0.6   -5.6    2.3
H    -5.2    0.7   -3.1
P    -4.1    4.6   -0.0
P    -4.1   -4.6   -0.0
H     4.5   -1.3   -4.0
H    -0.9   -5.3    3.1
I    -5.9   -2.0    0.5
H     1.4    5.3   -3.1
P     0.3   -0.0    6.3
P     0.3   -0.0   -6.3
C     0.0   -5.5   -3.1
C     0.5    5.5    3.1
H     0.1    5.9    2.3
H    -5.4    0.9    3.1
H     0.4   -5.9   -2.3
H     4.8    1.3    4.0
H     4.9    1.0   -4.0
I    -3.4    4.5    3.1
H    -1.1   -5.5   -3.1
P     4.6    4.6   -0.0
P     4.6   -4.6   -0.0
I    -2.3    2.0   -5.8
I    -1.6   -2.6   -5.8
H     1.6    5.5    3.1
I    -3.4   -4.7    3.1
H     5.8   -0.7    3.1
I     2.1    2.6    5.8
I     2.8   -2.0    5.8
I     3.9   -4.5   -3.1
I     6.5    2.0   -0.5
I    -1.6    6.6   -0.5
H     6.0   -0.9   -3.1
I     3.9    4.7   -3.1
H    -0.0    5.6   -4.0
I     2.1   -6.6    0.5
H     0.6   -5.6    4.0
I    -6.6    2.6    0.5
H     0.1    5.9    4.0
H     0.4   -5.9   -4.0
I    -4.8   -4.5   -3.1
I    -4.8    4.7   -3.1
I    -2.3    2.0    6.8
I    -1.6   -2.6    6.8
I    -2.3   -7.2   -0.5
I     2.1    2.6   -6.8
I     2.8   -2.0   -6.8
I     7.1   -2.6   -0.5
I     5.3    4.5    3.1
I     2.8    7.2    0.5
I     5.3   -4.7    3.1
I    -7.7    0.1   -3.1
P    -8.4   -0.0    0.0
I    -5.9   -2.0    5.8
H    -7.1   -3.6    3.1
P    -4.1    4.6   -6.3
P    -4.1    4.6    6.3
P    -4.1   -4.6    6.3
P    -4.1   -4.6   -6.3
I     8.3   -0.1    3.1
H    -7.3   -3.9   -3.1
I     6.5    2.0   -5.8
I    -1.6    6.6   -5.8
P     9.0   -0.0    0.0
I     2.1   -6.6    5.8
H     7.6    3.6   -3.1
P     4.6    4.6   -6.3
P     4.6    4.6    6.3
P     4.6   -4.6    6.3
P     4.6   -4.6   -6.3
H    -3.9   -7.9    2.3
H     0.1   -3.3   -8.5
H     0.4    3.3    8.5
H    -8.1    3.6    2.3
I    -6.6    2.6    5.8
H    -8.3    3.3   -2.3
P     0.3    9.2    0.0
P     0.3   -9.2    0.0
H    -4.2    7.9   -2.3
I    -5.9   -2.0   -6.8
H    -2.7    8.2   -3.1
H    -3.8   -8.2   -2.3
H    -0.0   -3.6    8.6
H     7.8    3.9    3.1
H     4.5    7.9   -2.3
H     0.6    3.6   -8.6
I    -6.6   -6.6    0.5
I    -5.9    7.2    0.5
H     3.3   -8.2    3.1
H    -8.6   -3.3    2.3
I    -0.4   -0.1   -9.4
H    -3.8    1.0    8.6
H     4.8   -7.9    2.3
I     1.0    0.1    9.4
H    -3.9    1.3   -8.5
C    -8.2   -3.7    3.1
H     4.3    8.2    2.3
H    -7.1    5.5    3.1
I    -2.3   -7.2   -5.8
H    -7.3    5.3   -3.1
H    -4.4    8.2    2.3
H    -2.9    8.5    3.1
I     7.1   -2.6   -5.8
I     6.5    2.0    6.8
I    -1.6    6.6    6.8
H    -4.2   -1.3    8.5
I    -0.4    9.1    3.1
H     8.7   -3.6   -2.3
I    -9.1   -0.1    3.1
I     2.8    7.2    5.8
H    -3.9   -7.9    4.0
H     8.8   -3.3    2.3
I     1.0   -9.1   -3.1
C    -3.8    8.3   -3.1
H     4.3   -1.0   -8.6
I     2.1   -6.6   -6.8
I     6.5   -7.2   -0.5
H    -8.7   -3.6   -2.3
H    -4.4   -1.0   -8.6
I     7.1    6.6   -0.5
H    -8.1    3.6    4.0
H     3.5   -8.5   -3.1
H     4.5   -1.3    8.5
N    -8.3   -4.0   -3.1
H    -8.3    3.3   -4.0
H     4.9   -8.2   -2.3
H    -4.2    7.9   -4.0
I    -0.4   -9.3    3.1
H    -3.8   -8.2   -4.0
I    -6.6    2.6   -6.8
I     1.0    9.3   -3.1
H    -2.7   -0.9    9.4
H     4.8    1.3   -8.5
C    -4.3   -8.3    3.1
C     4.4   -8.3    3.1
H     4.5    7.9   -4.0
H    -2.9   -0.7   -9.4
H     7.6   -5.5   -3.1
N    -8.5    4.0    3.1
H     9.1    3.3   -2.3
H     7.8   -5.3    3.1
H     4.9    1.0    8.6
C    -8.7    3.7   -3.1
C     8.7    3.7   -3.1
N    -4.0    8.6    3.1
H    -8.6   -3.3    4.0
H     3.3    0.9   -9.4
H     4.8   -7.9    4.0
H     4.3    8.2    4.0
H    -4.4    8.2    4.0
N    -4.2   -8.6   -3.1
H     3.5    0.7    9.4
C     0.0    3.7    9.4
C     4.9    8.3   -3.1
H    -8.1   -5.6    2.3
C     0.5   -3.7   -9.4
I    -2.3   -7.2    6.8
I     9.7    0.1   -3.1
H    -1.1    3.6    9.4
H     8.7   -3.6   -4.0
H     9.3    3.6    2.3
I     7.1   -2.6    6.8
C    -3.8   -0.9    9.4
N     4.5   -8.6   -3.1
H    -8.7   -3.6   -4.0
N     8.9    4.0    3.1
H     8.8   -3.3    4.0
H     1.6   -3.6   -9.4
H    -0.9    3.9   -9.4
N    -4.0   -0.6   -9.4
N     0.2    4.0   -9.4
N     0.4   -4.0    9.4
H    -0.0    5.6    8.6
N    -8.3    5.2   -3.1
I     2.8    7.2   -6.8
H     0.6   -5.6   -8.6
C    -8.2    5.5    3.1
N     4.7    8.6    3.1
H     1.4   -3.9    9.4
H     4.9   -8.2   -4.0
N    -4.2    0.6    9.4
H    -5.4   -8.2    3.1
H     0.1    5.9   -8.5
H     0.4   -5.9    8.5
N     9.1   -4.0   -3.1
H    -8.3   -5.9   -2.3
C    -4.3    0.9   -9.4
C     4.4    0.9   -9.4
C     9.2   -3.7    3.1
N    -8.5   -5.2    3.1
H    -5.2   -8.5   -3.1
N     4.5    0.6    9.4
H     9.1    3.3   -4.0
P    -8.4   -0.0    6.3
P    -8.4   -0.0   -6.3
N     4.7   -0.6   -9.4
H     8.7    5.6   -2.3
I   -10.3   -2.6   -0.5
H    -8.7    5.6   -2.3
H     6.0    8.2   -3.1
H    -8.1   -5.6    4.0
H    -8.6    5.9    2.3
C     4.9   -0.9    9.4
H     9.3    3.6    4.0
N     8.9   -5.2    3.1
C    -8.7   -5.5   -3.1
C     8.7   -5.5   -3.1
H     5.8    8.5    3.1
H    -2.9   -9.9    3.1
N     0.2   -5.2   -9.4
N     0.4    5.2    9.4
H    -9.6    3.9    3.1
H    -5.2    0.7    9.4
H     0.1   -3.3  -10.3
H    -0.9   -5.3   -9.4
H     0.4    3.3   10.3
H     8.8    5.9    2.3
H    -0.0   -3.6   10.3
H     0.6    3.6  -10.3
H     1.4    5.3    9.4
N     9.1    5.2   -3.1
H    -9.8    3.6   -3.1
C     0.0   -5.5    9.4
C     0.5    5.5   -9.4
H     3.5    9.9   -3.1
H    -5.4    0.9   -9.4
H    -8.3   -5.9   -4.0
H    -2.7  -10.1   -3.1
P     9.0   -0.0    6.3
P     9.0   -0.0   -6.3
I    -6.6   -6.6    5.8
I    -5.9    7.2    5.8
I    -3.4    4.5   -9.4
H    -3.8    1.0   10.3
N    -4.0   -9.8    3.1
H    -1.1   -5.5    9.4
H     1.6    5.5   -9.4
I    -3.4   -4.7   -9.4
N    -4.2    9.8   -3.1
H     5.8   -0.7   -9.4
H     8.7    5.6   -4.0
H     9.3   -5.6    2.3
H     3.3   10.1    3.1
H     9.1   -5.9   -2.3
I    10.8    2.6    0.5
H    -8.7    5.6   -4.0
H    -3.9    1.3  -10.3
I   -11.0    2.0   -0.5
P     0.3    9.2   -6.3
P     0.3    9.2    6.3
P     0.3   -9.2    6.3
P     0.3   -9.2   -6.3
H    -3.8   10.2   -2.3
I     3.9   -4.5    9.4
H    -8.6    5.9    4.0
C     9.2    5.5    3.1
H     4.3   -1.0  -10.3
C    -3.8  -10.1   -3.1
N     4.5    9.8   -3.1
H     6.0   -0.9    9.4
H    -4.4   -1.0  -10.3
I     3.9    4.7    9.4
H    -4.2   -1.3   10.3
I     6.5   -7.2   -5.8
H    10.1   -3.9   -3.1
N     4.7   -9.8    3.1
I     7.1    6.6   -5.8
H     4.5   -1.3   10.3
H     4.3  -10.2    2.3
H    -9.6   -5.3    3.1
H    -4.4  -10.2    2.3
H     8.8    5.9    4.0
H    10.3   -3.6    3.1
I    -2.3   11.2   -0.5
C    -4.3   10.1    3.1
C     4.4   10.1    3.1
H     4.9    1.0   10.3
H    -3.9   10.5    2.3
H     4.8    1.3  -10.3
I    -4.8   -4.5    9.4
I     2.8  -11.2    0.5
I    -6.6   -6.6   -6.8
I    -5.9    7.2   -6.8
H    -4.2  -10.5   -2.3
H     9.3   -5.6    4.0
I    -4.8    4.7    9.4
H     4.9   10.2   -2.3
H    -5.2    9.9   -3.1
H     9.1   -5.9   -4.0
H    -3.8   10.2   -4.0
C     4.9  -10.1   -3.1
H     4.5  -10.5   -2.3
I    11.5   -2.0    0.5
H    -9.8   -5.5   -3.1
H    -0.0    5.6   10.3
I     5.3    4.5   -9.4
H     0.6   -5.6  -10.3
H     4.8   10.5    2.3
H     4.3  -10.2    4.0
I     5.3   -4.7   -9.4
H    -4.4  -10.2    4.0
H    10.1    5.3   -3.1
I     6.5   -7.2    6.8
H     5.8   -9.9    3.1
I     7.1    6.6    6.8
H   -11.4   -0.9   -3.1
H     0.1    5.9  -10.3
H     0.4   -5.9   10.3
I    -1.6  -11.8   -0.5
H    -5.4   10.1    3.1
H    -3.9   10.5    4.0
I     2.1   11.8    0.5
H     4.9   10.2   -4.0
H    -4.2  -10.5   -4.0
I   -10.3   -2.6   -5.8
H   -11.7   -0.7    3.1
H     4.5  -10.5   -4.0
H    10.3    5.5    3.1
H     6.0  -10.1   -3.1
I   -10.3    6.6   -0.5
I    -7.7    0.1    9.4
H     4.8   10.5    4.0
H    -3.9   -7.9   -8.5
H    -8.3    3.3    8.5
H    -7.1   -3.6   -9.4
I    -7.7   -9.1   -3.1
H    -4.2    7.9    8.5
H    -8.1    3.6   -8.6
H    12.0    0.9    3.1
H    -3.8   -8.2    8.6
H     4.5    7.9    8.5
I    -2.3    2.0   12.1
I    -1.6   -2.6   12.1
P    -8.4    9.2    0.0
P    -8.4   -9.2    0.0
I    -7.7    9.3   -3.1
I    10.8    2.6    5.8
H    -8.6   -3.3   -8.5
I     2.1    2.6  -12.1
I   -11.0    2.0   -5.8
H     4.8   -7.9   -8.5
I     8.3   -0.1   -9.4
H    -7.3   -3.9    9.4
I     2.8   -2.0  -12.1
I   -10.3   -2.6    6.8
P     0.3   -0.0  -12.6
P     0.3   -0.0   12.6
H    12.2    0.7   -3.1
H     4.3    8.2   -8.6
H    -4.4    8.2   -8.6
