         400
 sphere cut out from bulk 
P    -0.2   -0.1   -0.7
I     0.8    2.1    1.4
I     1.2   -2.1    1.4
I    -2.7   -0.3    1.4
P    -0.3   -0.1    3.5
I     2.2    0.0   -2.8
I    -1.5    2.0   -2.8
I    -1.3   -2.3   -2.8
H     3.5   -2.5    0.5
H     0.0    4.4    0.7
H    -4.3   -2.0    0.6
H     4.3   -1.7   -1.7
P    -0.3   -0.1   -4.9
H    -1.0    4.6   -1.5
H     3.3    2.6    2.8
N     4.4   -2.7    0.2
H     0.3   -4.6    2.5
H    -3.9   -3.0   -1.7
H     3.7   -3.4   -1.7
H     0.7    5.0   -1.5
N    -0.3    5.3    0.3
C     4.4   -2.7   -1.3
C    -0.3    5.3   -1.2
H    -4.5    1.7    2.6
H     5.1   -2.0    0.6
H     3.4    2.0   -3.9
H    -5.1   -1.7   -1.7
N    -4.9   -2.7    0.2
H    -1.3    5.5    0.7
H     4.8    1.7    2.6
H    -0.5   -4.5   -3.5
C    -4.9   -2.7   -1.3
C     4.2    2.2    3.3
H     3.9    1.5    4.1
H    -4.6   -3.7    0.5
I     2.1   -0.2    5.6
H     4.7   -3.7    0.5
H     0.3    6.0    0.7
I    -1.5    2.0    5.5
I    -1.7   -2.2    5.5
C     0.2   -5.4    3.3
H    -1.3   -4.4    4.4
H    -3.7    2.7   -4.4
H    -3.6    2.9    4.4
N     3.6    2.8   -4.6
H    -1.9   -5.3    3.1
H     5.4   -3.0   -1.7
H    -5.9   -2.5    0.5
H     3.5    3.7   -4.0
H    -4.0    3.9    3.1
H    -0.5    6.3   -1.6
C    -5.2    2.2    3.3
H     2.8    2.7   -5.3
N    -1.2   -5.2    3.8
H     0.8   -5.6   -3.5
N    -0.1   -5.4   -3.9
H     0.9   -5.3    4.1
N    -4.4    3.3    3.9
I     6.7   -0.3    1.4
H    -5.7   -3.4   -1.7
H     0.3   -6.4    2.8
H    -5.5    1.5    4.1
I    -3.6    5.9    1.5
N     5.0    3.3    3.9
H    -6.0    2.6    2.8
H    -0.8   -6.2   -3.5
I    -3.8   -5.9    1.5
I     3.4    5.8   -2.8
I     1.0    2.2   -6.9
H     5.3    3.9    3.1
C    -4.5    2.6   -5.2
I     3.1   -6.1   -2.7
I     1.0   -2.1   -7.0
H    -6.0    2.0   -3.9
H    -4.4    1.7   -5.7
H     4.4    3.9    4.5
H     0.7   -4.7   -5.7
I    -2.6   -0.0   -7.1
C     4.9    2.6   -5.2
C    -0.1   -5.4   -5.4
H    -1.4   -6.0    4.5
H     3.7   -2.0    6.4
I    -7.2    0.0   -2.8
H     5.7    2.7   -4.4
H     4.9    1.7   -5.7
P    -0.4   -0.1    7.7
H    -5.0    3.9    4.5
H    -1.1   -5.1   -5.8
H     5.8    2.9    4.4
N    -5.8    2.8   -4.6
H    -5.9    3.7   -4.0
H    -4.1   -2.5    6.5
H    -4.4    3.4   -5.9
I     2.0    7.8    1.4
I     5.5   -5.9    1.5
H    -1.0    4.6    6.9
I     5.8    5.9    1.5
H     4.0   -3.6    6.4
H     5.0    3.4   -5.9
N     4.3   -2.7    6.8
I     7.9    2.0   -2.8
I    -8.2   -2.1    1.4
H     0.7    5.0    6.9
H     0.1   -6.4   -5.7
I     2.1   -8.3    1.4
I    -2.4   -7.9   -2.7
H     5.3   -2.5    6.5
I     3.2    5.9    5.6
I     8.0   -2.3   -2.8
I    -6.0    5.8   -2.8
I     3.3   -5.9    5.6
H    -5.7   -2.0    6.4
H    -6.6    2.7   -5.3
H     0.2    4.4   -7.7
N    -5.1   -2.7    6.8
I    -2.5    8.2   -2.7
I    -8.6    2.1    1.4
C    -0.3    5.3    7.3
P    -0.2   -0.0   -9.1
I    -6.2   -6.1   -2.7
P     4.4    7.9   -0.7
H    -5.4   -3.6    6.4
P     9.1   -0.1   -0.7
I    -7.3   -0.2    5.6
P     4.5   -8.1   -0.7
P    -4.9    7.9   -0.7
H     3.5   -3.1   -8.2
H    -0.5    6.3    6.9
P    -4.9   -8.1   -0.7
H     4.6   -1.7   -8.1
H    -1.1    5.5   -7.7
H    -4.8   -1.7   -8.1
H     8.3    4.6   -1.5
P    -9.6   -0.1   -0.7
H     7.5   -5.3    3.1
N    -0.1    5.3   -8.1
H    -4.1   -3.3   -8.1
I     7.7   -2.2    5.5
P     9.1   -0.1    3.5
C     4.3   -2.7    8.3
P     4.3    8.0    3.6
H     3.3   -3.1    8.6
I     6.7   -0.0   -7.1
H     0.5    6.1   -7.7
I     7.8    2.0    5.5
I    -3.4    6.0   -7.0
H     8.1    5.5    0.7
I    -3.6   -5.9   -6.9
P     4.4   -8.1    3.6
H     4.4   -1.7    8.7
H    -0.5   -9.8   -1.6
C     4.5   -2.7   -8.5
H     0.4  -10.0    0.7
I     0.8   -2.1    9.8
I    -2.5   -8.0    5.6
H    -0.0    4.4    9.1
H    -8.7    5.0   -1.5
H     0.2    9.7    2.8
C    -5.1   -2.7    8.3
P    -5.1    8.0    3.6
H    -5.0   -1.7    8.7
P    -5.0   -8.1    3.6
I     0.8    2.1    9.9
I    -2.8   -0.1    9.7
C    -4.9   -2.7   -8.5
I    -2.6    8.1    5.6
I    -6.1    5.9    5.6
H     8.1   -4.4    4.4
I    -6.1   -5.9    5.6
H    -4.3   -3.3    8.7
N    -0.3    5.3    8.8
H     5.3   -3.3   -8.1
P    -9.6   -0.1    3.5
P     9.1   -0.1   -4.9
H    -9.3    4.4    0.7
H     9.4    4.4    0.7
P     4.5    8.0   -4.9
H    -9.0   -4.6    2.5
I    10.1    2.1    1.4
P     4.6   -8.0   -4.9
N     8.2   -5.2    3.8
N     9.1    5.3    0.3
H    -5.8   -3.1   -8.2
P    -4.8   -8.0   -4.9
H    -0.9    9.9   -3.5
C     9.1    5.3   -1.2
H     8.9   -4.5   -3.5
P    -4.9    8.0   -4.9
H     5.1   -3.3    8.7
H    -1.2  -10.6    0.7
I     2.1    7.8   -7.0
H    -1.3    5.5    9.1
H    -8.4   -5.3    4.1
I     5.7   -5.9   -6.9
N    -0.2  -10.8    0.3
H    -8.5   -5.6   -3.5
I    10.5   -2.1    1.4
I     3.1   10.0   -2.7
P    -9.6   -0.1   -4.9
I    -7.4    7.8    1.4
I    -3.5  -10.1    1.5
C    -0.2  -10.8   -1.2
I     7.0   -7.9   -2.7
H    -9.0    6.0    0.7
I     5.9    6.0   -7.0
H     8.8    6.3   -1.6
C    -0.1    5.4   -9.5
H     0.3    6.0    9.1
H     8.0   -6.0    4.5
H    -6.0   -3.1    8.6
H    -0.8    4.7   -9.9
H     9.7   -4.6    2.5
I    -3.9   10.2    1.5
I     6.9    8.2   -2.7
N    -9.7    5.3    0.3
I     2.2   -8.3   -7.0
C    -9.6    5.3   -1.2
H     0.7   10.5   -3.5
I    -8.3   -2.1   -7.0
I    -8.4    2.2   -6.9
H    -1.4   10.0    4.5
C    -9.2   -5.4    3.3
I    -7.3   -8.3    1.4
H     8.6   -6.2   -3.5
H     0.9    5.1   -9.9
I     3.4  -10.3   -2.8
C     0.1   10.7    3.3
H     0.8  -11.1   -1.5
H     3.8   -1.9  -10.4
H     0.1    9.7   -5.7
I   -10.7   -2.3   -2.8
N     4.5   -2.7  -10.0
H     8.3   -5.1   -5.8
H    -3.9   -2.5  -10.3
H    10.1    5.0   -1.5
N    -0.2   10.6   -3.9
I   -10.9    2.0   -2.8
N     9.2   -5.4   -3.9
H    -9.8   -4.5   -3.5
H    -2.0   10.8    3.1
I     2.2   -0.2  -11.2
H    -8.7   -4.7   -5.7
H    -9.1   -6.4    2.8
N    -4.9   -2.7  -10.0
C     9.6   -5.4    3.3
H     9.7    6.0    0.7
H   -10.4    4.6   -1.5
I    -1.4    2.1  -11.3
N    -1.2   10.8    3.8
H     0.8   10.8    4.1
I    -1.5   -2.2  -11.3
N    -9.5   -5.4   -3.9
H    -1.0  -11.5   -1.5
I     5.5   10.2    1.5
H     0.1  -11.7    0.7
H     4.2   -3.6  -10.4
H     8.3    4.6    6.9
I     6.6   -0.1    9.7
H     0.2   11.5    2.5
H    -0.3    6.4   -9.9
I     5.8  -10.1    1.5
H    -9.9    6.3   -1.6
P     9.0   -0.1    7.7
H     9.6   -6.4    2.8
I    11.6    0.0   -2.8
H    -5.5   -1.9  -10.4
P    -0.5   -0.2   11.9
I     6.9   -8.0    5.6
C    -0.2   10.7   -5.4
H     5.5   -2.5  -10.3
H    -0.4   -9.7    6.9
I     6.8    8.1    5.6
H   -10.6    5.5    0.7
P     4.4    8.0    7.8
C     9.3   -5.4   -5.4
I     3.2   10.1    5.6
P     4.5   -8.1    7.8
I    -3.6    6.0    9.9
H     0.5   -4.7   11.1
H    -0.6   11.6   -3.5
I    -6.3   10.0   -2.7
H    10.2   -5.6   -3.5
H    -5.2   -3.6  -10.4
I   -12.0   -0.3    1.4
I     3.3  -10.2    5.6
H     2.6    2.7   11.5
H    -4.6    1.6   11.1
C    -9.5   -5.4   -5.4
I    -3.8   -6.0    9.9
I    -5.9  -10.3   -2.8
H    -8.7    5.0    6.9
H     4.7    1.6   11.1
P    -5.0    8.0    7.8
P    -4.9   -8.1    7.8
H    10.3   -5.3    4.1
H    -1.3   -5.1   11.1
H    -4.6    3.4   10.9
H   -10.6   -4.4    4.4
H     4.8    3.4   10.9
N   -10.5   -5.2    3.8
H   -10.1   -6.2   -3.5
I   -10.9    2.0    5.5
P    -9.7   -0.1    7.7
H    -1.2   11.0   -5.8
H    10.0   -4.7   -5.7
I   -11.0   -2.2    5.5
H     8.2    5.5   -7.7
H    -1.4   11.7    4.4
H    -9.2   -6.4   -5.7
H     0.6  -10.0   -7.7
I    10.3    2.2   -6.9
C    -0.3   -5.4   11.4
I     1.9    7.8    9.8
I    -3.4  -10.1   -7.0
I    10.4   -2.1   -7.0
I    11.4   -0.2    5.6
I    -7.2    7.8   -7.0
H     0.6   11.4   -5.7
H    -9.2    4.4   -7.7
C    -4.7    2.6   11.6
C     9.1    5.3    7.3
C     4.7    2.6   11.6
I     5.5   -6.0    9.9
H   -11.2   -5.3    3.1
H    -0.0   -6.5   11.1
H     9.5   -6.4   -5.7
I    -3.7   10.2   -6.9
I     5.7    6.0    9.9
H     8.8    6.3    6.9
P     9.2   -0.0   -9.1
P     4.6    8.0   -9.0
P     4.7   -8.0   -9.0
C    -0.2  -10.7    7.3
I    -7.2   -8.3   -7.0
H   -10.4   -5.1   -5.8
P    -4.7   -8.0   -9.0
N     3.4    2.7   12.3
P    -4.8    8.0   -9.0
H     9.5    4.4   -7.7
I     2.0   -8.3    9.8
H     0.8  -11.0    6.9
H    12.8   -2.5    0.5
H   -10.7   -6.0    4.5
I     3.4   -5.9  -11.2
I     3.4    5.9  -11.2
H    -1.0  -10.6   -7.7
I    -6.0  -10.2    5.6
H    -3.9  -12.1    3.1
I    -6.2   10.1    5.6
I    -8.5   -2.1    9.8
H    -3.4    3.0  -12.4
P    -9.5   -0.0   -9.1
H    -8.9    6.1   -7.7
C    -9.7    5.3    7.3
H    -1.1   -4.3  -12.4
H    10.1    5.0    6.9
H    -3.9    2.7   12.4
H    12.7    2.6    2.8
I    -7.1   -0.2  -11.2
H     4.6   12.4    0.5
I    -8.6    2.1    9.9
H    -4.7   12.4    0.5
H   -10.4    4.6    6.9
H     3.6   12.7   -1.7
P    -0.1   -0.0  -13.3
H     8.9   -9.8   -1.6
H     8.1    5.5    9.1
N     9.2    5.3   -8.1
H    -1.0  -11.4    6.9
H     8.2  -10.6    0.7
N    -0.1  -10.7   -8.1
H     7.4   10.8    3.1
H    -8.9  -10.0    0.7
H     4.1    1.6  -12.7
H     3.2    1.9   12.9
H    12.7    2.0   -3.9
I     5.6   10.2   -6.9
H     8.5    9.9   -3.5
H     3.6  -12.4   -4.0
H    12.2    2.7   -5.3
N    -9.5    5.3   -8.1
H    13.0   -3.4   -1.7
H     7.9   10.0    4.5
H     0.4  -10.0    9.1
H    -6.7    2.7   11.5
N     9.0    5.3    8.8
I     6.0  -10.1   -7.0
H     5.4  -12.1    3.1
H    -9.2    9.7    2.8
H    -9.9    6.3    6.9
H     4.6    3.9  -12.3
H     3.3    3.6   12.8
H   -13.3   -3.0   -1.7
H    -4.8    3.9  -12.3
H    -4.0   13.0   -1.7
H    -1.2   -6.0  -12.3
H     9.3    4.4    9.1
H     4.5  -12.2    4.5
H    -9.4    4.4    9.1
H     5.5    2.7   12.4
