         400
 sphere cut out from bulk 
I     1.7    0.1    0.8
H    -2.1   -0.9    0.5
P     1.2    0.0   -2.4
H    -3.0    0.3   -0.4
I    -1.3    2.1   -1.9
C    -3.1   -0.6    0.3
I    -0.8   -2.5   -2.0
H    -0.5    3.6    0.5
H    -3.2    0.6    2.0
H    -3.6   -1.4   -0.2
H     1.8    3.5   -0.3
H     0.0   -4.0   -0.1
H     1.7    3.3    1.5
N    -3.8   -0.1    1.5
P     1.0    0.0    3.9
I    -1.5    1.9    3.5
C     1.6    4.0    0.7
H     4.2    0.2    1.3
H    -0.1   -4.2    1.6
N     0.1    4.4    0.7
I    -0.7   -2.7    3.6
H    -3.9   -0.9    2.2
N     0.2   -4.7    0.7
H     2.2   -4.2    0.8
I     3.2    2.5   -2.8
H    -4.7    0.2    1.3
H    -0.1    5.1   -0.1
I     3.7   -2.0   -2.8
H    -0.1    4.9    1.6
C     1.6   -5.1    0.7
N     5.2   -0.1    1.5
H     2.2    4.9    0.8
H     5.3   -1.4   -0.2
H    -0.4   -5.5    0.5
H     5.0   -0.9    2.2
I     0.5   -0.2   -5.5
H    -3.1    1.3   -4.5
H     0.6   -3.4   -4.5
H    -2.1   -0.7   -5.4
I    -3.7   -4.4    0.8
I     3.0    2.6    4.3
H     1.9   -5.6   -0.3
H    -3.6   -1.1   -4.6
C     5.9   -0.6    0.3
H     5.9    0.3   -0.4
I    -3.8    4.7    0.8
P    -3.4    4.5   -2.4
H     5.7    0.6    2.0
P    -3.3   -4.6   -2.4
I     3.8   -1.9    4.4
H     1.8   -5.8    1.5
H     0.4    3.9   -4.9
I    -5.2   -2.0   -2.8
N    -3.1   -0.6   -5.4
C    -3.5    0.9   -5.4
H     2.0   -4.5   -4.4
C     1.1   -4.3   -4.9
H     2.0    4.6   -4.4
P    -3.4    4.4    4.0
I    -5.7    2.5   -2.8
I     5.2   -4.4    0.8
C     1.0    4.8   -4.9
I    -0.8    6.6   -2.0
P    -3.3   -4.6    4.0
H     0.5   -3.8    5.8
H     6.9   -0.9    0.5
I     5.1    4.7    0.8
H     4.4    0.9   -5.4
I    -5.1   -1.9    4.4
I     0.4   -0.2    7.1
H    -3.0    1.3   -6.3
H     0.4   -5.2   -4.9
H     5.4   -1.1   -4.6
H    -3.1    1.2    6.3
H    -4.6    0.9   -5.4
H     0.5    5.6   -4.5
I    -7.2    0.1    0.8
H    -3.5   -1.1   -6.2
I    -0.7    6.3    3.6
H     2.0   -3.3    6.2
I    -1.2   -7.0   -1.9
H     1.7    4.2    5.8
H    -3.6   -1.1    6.4
H     2.1   -3.2   -6.4
H     5.9    1.3   -4.5
P     5.6    4.5   -2.4
H    -2.2   -0.8    7.2
N     1.4   -4.0   -6.3
N     1.4   -4.1    6.3
I    -2.7   -4.6   -5.5
P     5.7   -4.6   -2.4
I    -2.7    4.5   -5.5
C     5.5    0.9   -5.4
H     0.4    5.3    5.8
H     1.8   -4.9    5.8
I    -6.0    2.6    4.3
H     0.6   -3.7   -6.8
I     3.3   -6.6   -2.8
N    -3.2   -0.7    7.2
H    -6.7   -4.2    0.8
N     5.8   -0.6   -5.4
H    -7.1    3.5   -0.3
C    -3.5    0.8    7.2
H    -7.2    3.3    1.5
P    -7.7    0.0   -2.4
P     5.6    4.4    4.0
N     1.3    5.0    6.3
I    -1.5   -7.2    3.5
I     7.7    2.1   -1.9
N     1.3    5.1   -6.3
H     1.8    4.3   -6.8
P     5.6   -4.6    4.0
H     5.4   -1.1   -6.2
I     7.4    1.9    3.5
H    -6.8    4.9    0.8
I     3.0   -6.5    4.3
H     5.3   -1.1    6.4
H     4.3    0.9    7.2
C    -7.4    4.0    0.7
I     3.6    7.1   -2.8
H    -2.1    8.2    0.5
H     1.9   -4.8   -6.8
H    -3.7    7.7   -0.2
H    -4.6    0.9    7.2
H     0.3    3.8    7.8
H     5.8    1.2    6.3
H     0.5    5.3   -6.8
H     6.8   -0.7   -5.4
H     1.9    5.8    6.2
H     5.9    1.3   -6.3
P     1.1    0.1   -8.7
I     8.2   -2.5   -2.0
H    -3.1    1.2    8.1
I    -2.8    4.4    7.1
P    -7.9    0.0    3.9
I    -2.7   -4.6    7.1
H    -3.6   -1.1    8.0
H     0.5   -3.5    8.2
H     2.0    5.9   -6.4
C    -7.3   -5.1    0.7
C     1.0   -4.4    7.7
H    -7.1   -5.6   -0.3
C     5.4    0.8    7.2
C    -3.1    8.5    0.3
C     1.0    4.7    7.7
I    -5.7   -6.6   -2.8
I     3.7    7.1    4.4
I     3.0    2.7   -8.3
I     1.8   -9.0    0.8
H     8.4    3.6    0.5
N     5.7   -0.7    7.2
I     3.9   -1.9   -8.2
H    -3.1   -8.5    2.0
H    -2.9   -8.8   -0.4
I    -5.3    7.1   -2.8
H    -7.1   -5.8    1.5
H     5.2    7.7   -0.2
H    -6.9   -4.5   -4.4
H    -4.0    8.2    2.2
I     1.7    9.2    0.8
H     0.4   -5.3    7.8
I     8.3   -2.7    3.6
H    -7.0    4.6   -4.4
I    -0.6   -2.7   -9.0
I    -1.5    1.9   -9.1
P     1.3   -9.1   -2.4
I     6.2    4.5   -5.5
H    -3.0   -7.8   -4.5
P     1.1    9.1   -2.4
I     6.3   -4.6   -5.5
H     1.9    4.5    8.3
H     2.0   -4.6    8.3
H     5.3   -1.1    8.0
H    -8.9   -4.0   -0.1
I    -5.9   -6.5    4.3
H     5.0    8.2    2.2
H     9.0   -4.0   -0.1
I    -5.1   -1.9   -8.2
N    -3.8    9.0    1.5
H    -6.9   -3.3    6.2
N    -8.8    4.4    0.7
H     0.4    5.6    8.2
I    -5.2    7.1    4.4
H    -3.1    9.4   -0.4
H    -6.9   -3.2   -6.4
N    -8.7   -4.7    0.7
H    -3.6    8.0   -4.6
H     4.3   -8.9    1.3
H     8.9   -4.2    1.6
H     6.8   -0.8    7.2
P     1.1   -9.1    3.9
P     1.0    9.1    3.9
N    -3.7   -9.2    1.5
H     5.8    1.2    8.1
H    -9.0   -4.2    1.6
H    -8.3   -3.4   -4.5
H    -4.6   -8.9    1.3
I    -8.4   -0.2   -5.5
C    -3.0   -9.6    0.3
H    -9.4    3.6    0.5
N     9.1    4.4    0.7
H     8.5   -5.5    0.5
H    -7.2    4.2    5.8
H    -2.2    8.4   -5.4
H     8.8    4.9    1.6
C    -7.8   -4.3   -4.9
H    -2.0  -10.0    0.5
I    -9.7   -2.5   -2.0
H     8.9    5.1   -0.1
H     4.1    9.3    1.3
N     9.1   -4.7    0.7
P     1.1   -0.1   10.2
C     5.8    8.5    0.3
P    -3.2   -4.6   -8.7
P    -3.3    4.5   -8.7
H    -9.0    5.1   -0.1
I     6.1    4.4    7.1
P    10.1    0.0   -2.4
N     5.1    9.0    1.5
C    -3.4   -8.2   -5.4
H    -9.1    4.9    1.6
H    -7.1   -4.9    5.8
H    -3.3    9.7    2.0
H    -3.0   -7.8   -6.3
C    -7.9    4.8   -4.9
H     5.8   -8.5    2.0
I     6.2   -4.6    7.1
I    -5.9    2.7   -8.3
I     0.4    8.9   -5.5
H    -3.0   -7.8    6.3
H    -4.8    9.3    1.3
N    -3.2    8.5   -5.4
H    -8.6    3.9   -4.9
I   -10.2    2.1   -1.9
N    -7.5   -4.0   -6.3
I     8.1    6.6   -2.0
I    -9.6   -2.7    3.6
I     3.1    2.4    9.8
I     7.7   -7.0   -1.9
H     6.8    8.2    0.5
I     3.7   -2.1    9.8
H     6.0   -8.8   -0.4
H     5.3    8.0   -4.6
N    -7.6   -4.1    6.3
I    10.7    0.1    0.8
N     5.3   -9.2    1.5
P    10.0    0.0    3.9
H    -7.1    4.3   -6.8
H     4.4   -8.1   -5.4
H     5.9   -7.8   -4.5
H    -4.5   -8.1   -5.4
H    -3.6    8.0   -6.2
I     0.6   -9.3   -5.5
H    -3.7    7.9    6.4
H    -9.3   -5.5    0.5
H    -8.4   -3.8    5.8
H    -7.1   -4.8   -6.8
I     3.1   -6.4   -8.3
H    -3.8  -10.0    2.2
I    -1.3    2.0   10.7
I     8.2    6.3    3.6
I     9.4   -0.2   -5.5
I     7.5   -7.2    3.5
I    -0.8   -2.6   10.7
H    -7.0    5.8    6.2
H    -3.6  -10.4   -0.2
I    -8.5   -0.2    7.1
H   -11.0   -0.9    0.5
H     5.8    9.4   -0.4
H    -3.1    0.7  -10.6
H     9.5   -3.4   -4.5
H    -8.5   -5.2   -4.9
H    -8.4    5.6   -4.5
N    -7.6    5.1   -6.3
N    -7.7    5.0    6.3
H    -6.9    5.9   -6.4
I    -0.7    6.4   -9.0
H    -3.8   -0.8  -10.4
I   -10.5    1.9    3.5
H     9.3    3.9   -4.9
H    -2.2    8.3    7.2
H    10.6    3.3    1.5
C    10.5    4.0    0.7
P     5.6    4.5   -8.7
H    10.7    3.5   -0.3
C     5.5   -8.2   -5.4
I    -5.3   -2.1    9.8
I     0.4    8.8    7.1
P     5.7   -4.6   -8.7
C     5.9   -9.6    0.3
H    -2.0   -9.8   -5.4
H     5.6    9.7    2.0
I    -1.3   11.2   -1.9
H    -8.4   -3.7   -6.8
H     5.1  -10.0    2.2
H     5.3    7.9    6.4
H     5.3    8.0   -6.2
I    -7.1   -9.0    0.8
N    -3.0   -9.7   -5.4
C    -3.5   -8.3    7.2
H    -8.5    5.3    5.8
I     3.8    7.2   -8.2
N    -3.3    8.4    7.2
N     5.7    8.5   -5.4
I    -1.6   10.9    3.5
H     5.1   -0.8  -10.4
H    -3.5  -10.1   -4.6
H     6.0   -7.8   -6.3
P    -3.4    4.4   10.2
H     5.9   -7.8    6.3
P    -7.8    0.1   -8.7
H    -3.1   -7.8    8.1
N    -3.7   -0.1  -11.1
I    -1.4   -7.2   -9.1
I    -5.8    2.4    9.8
H     9.4   -3.8    5.8
I     0.5   -9.3    7.1
P    -3.3   -4.6   10.2
H    -7.0   -4.6    8.3
H     5.4  -10.4   -0.2
H     4.4   -8.2    7.2
I    -7.3    9.2    0.8
C    10.6   -5.1    0.7
I     9.4   -0.2    7.1
H    -7.0    4.5    8.3
H     1.8    3.4  -11.1
H    -3.2   10.4   -4.5
H     9.4   -5.2   -4.9
I    -0.7  -11.6   -2.0
H     0.0   -4.1  -11.1
H    -4.6   -8.2    7.2
C    -3.6    9.9   -5.4
H     9.4    5.6   -4.5
C    -7.9   -4.4    7.7
H    -3.7    8.0    8.0
I     1.8    0.2  -11.8
I    -9.8    6.6   -2.0
H   -11.9    0.3   -0.4
I     7.5    1.9   -9.1
C    10.0   -4.3   -4.9
H    11.2   -4.2    0.8
I    -5.8   -6.4   -8.3
C   -12.0   -0.6    0.3
H     6.8    8.4   -5.4
C    -8.0    4.7    7.7
C    10.0    4.8   -4.9
I     3.8  -11.1   -2.8
I    -5.2    7.2   -8.2
H     5.8    0.7  -10.6
H     4.3    0.3  -11.3
P    -7.7   -9.1   -2.4
H    -8.4    5.3   -6.8
I    -9.7    6.3    3.6
H    -0.1    5.0  -11.1
H    10.8   -5.6   -0.3
H    11.1    4.9    0.8
H     6.9  -10.0    0.5
H     4.3   10.0   -5.4
H     9.4    5.3    5.8
H    -8.6    3.8    7.8
P    -7.8    9.1   -2.4
H    -8.4   -3.5    8.2
H    -4.6    0.3  -11.3
N     5.2   -0.1  -11.1
C     5.5   -8.3    7.2
H    -2.0   -0.8  -12.1
H    10.7   -5.8    1.5
I     3.1   11.6   -2.8
H   -11.0   -0.7   -5.4
H     9.5   -3.7   -6.8
I     3.2   -6.7    9.8
H    -4.6   10.0   -5.4
H   -12.1    0.6    2.0
I    -0.6  -11.8    3.6
H     5.5  -10.1   -4.6
H    -3.4  -10.1   -6.2
H    -2.1   -9.9    7.2
P     5.5    4.4   10.2
N     5.7    8.4    7.2
I   -10.1   -7.0   -1.9
H     5.2    8.0    8.0
I     3.9  -11.0    4.4
H    -3.2   10.3    6.3
I    -0.9    6.5   10.7
N    -3.1   -9.7    7.2
C     5.4    9.9   -5.4
I     3.6    7.0    9.8
H    -3.5  -10.2    6.4
N     5.9   -9.7   -5.4
P     1.2   -9.0   -8.7
P     5.6   -4.6   10.2
H    -3.1   10.4   -6.3
I    -5.1  -11.1   -2.8
H     1.6   12.4    1.5
I     8.3   -2.7   -9.0
H    10.9    4.6   -4.4
P    -7.8   -9.1    3.9
H    -3.1    0.2   12.2
H    11.0   -4.5   -4.4
H     1.9   -5.7  -11.1
