         400
 sphere cut out from bulk 
P     0.3   -0.1   -0.6
I    -0.6    2.1    1.5
I    -1.0   -2.1    1.5
I     2.9   -0.2    1.4
I    -2.1    0.1   -2.7
P     0.4   -0.1    3.6
I     1.7    1.9   -2.7
I     1.4   -2.3   -2.7
H    -3.2    2.7    0.4
H    -3.9    1.3   -1.5
H     4.3    1.2   -0.2
H     4.0    2.1   -1.6
H    -3.3   -2.6    2.2
H    -0.3   -4.8    0.3
P     0.3   -0.1   -4.8
H     0.5    4.2    2.6
H     0.7   -4.6   -2.0
N    -4.6    1.8   -0.9
C    -4.0    3.0   -0.3
H    -5.0    1.2   -0.2
N     4.7    1.8   -0.9
H    -3.6    3.6   -1.1
H     4.4   -2.0    2.2
H     1.4   -5.2    0.2
C     0.4   -5.5   -0.1
N     0.3   -5.5   -1.6
N    -4.3   -2.7    2.6
H    -4.9   -2.0    2.2
H     5.5    1.3   -1.5
H     4.5    3.6    0.2
N     1.1    4.7    3.3
H     1.4    4.0    4.0
H     1.0    4.5   -3.7
H    -4.1   -1.8   -4.0
H    -5.4    2.1   -1.6
H    -4.8    3.6    0.2
H    -0.6   -5.7   -1.9
I    -2.0    0.2    5.7
H     1.9    5.0    2.7
C     5.3    3.0   -0.3
I     1.7    2.0    5.6
H    -4.0   -1.7    4.4
I     1.5   -2.2    5.7
H    -4.6   -3.7    2.3
N     5.1   -2.7    2.6
H     4.7   -3.7    2.3
H     4.0   -3.0   -4.0
H    -3.6   -3.5   -4.0
H     0.2   -6.5    0.2
C    -4.3   -2.7    4.1
H     1.0   -6.2   -2.0
H    -3.5   -3.4    4.5
I    -6.5   -0.2    1.4
H     6.1    2.7    0.4
C    -4.4   -2.7   -4.4
H     4.1   -3.0    4.5
H     5.3   -1.8   -4.0
H    -1.2    5.2   -4.4
H     5.8    3.6   -1.1
H     6.0   -2.6    2.2
C     0.9    5.3   -4.4
H    -0.5    5.4    4.3
C     0.4    5.8    3.9
H    -0.6    4.3   -5.6
C     5.1   -2.7    4.1
H     5.3   -1.7    4.4
C     5.0   -2.7   -4.4
I    -3.1    5.9   -2.7
H     0.1    6.5    3.1
I    -3.0   -6.0   -2.7
N    -0.5    5.2   -5.1
I     4.0   -5.9    1.5
I    -1.1   -2.1   -6.9
I    -0.8    2.1   -7.0
H    -5.4   -3.0   -4.0
I     3.9    6.0    1.6
I     2.7   -0.2   -6.9
H     0.9    6.3   -4.0
H    -5.3   -3.0    4.5
H    -3.4   -2.6   -6.2
H     1.6    5.2   -5.2
I     7.2    0.1   -2.7
P     0.5    0.0    7.8
N    -4.4   -2.7   -5.9
H    -3.2    2.1    6.8
H     5.7   -3.5   -4.0
H     4.4   -2.0   -6.2
H     0.8   -4.4    6.4
H     1.0    6.3    4.6
H     5.8   -3.4    4.5
I    -5.4   -5.9    1.5
N     5.0   -2.7   -5.9
H    -5.0   -2.0   -6.2
H    -0.7    6.0   -5.7
I    -5.5    6.0    1.6
I    -7.7    1.9   -2.7
I    -1.8    8.0    1.5
I    -1.9   -8.2    1.5
H    -0.5   -5.5    6.4
H    -3.2    3.8    6.9
H     4.7   -3.6   -6.2
H    -4.7   -3.6   -6.2
N     0.4   -5.4    6.8
N    -3.3    2.9    7.5
I    -8.0   -2.3   -2.7
I     8.4   -2.1    1.5
I    -2.9   -6.0    5.7
I     2.6   -7.9   -2.6
H     3.9    3.0    7.3
I    -3.1    6.0    5.8
H     1.1   -6.1    6.4
H     6.0   -2.6   -6.2
P     0.4   -0.1   -9.0
P    -9.0   -0.1   -0.6
I     2.7    8.2   -2.6
I     6.3    5.9   -2.7
H    -2.6    2.9    8.2
P    -4.2    8.1   -0.6
I     8.7    2.1    1.5
P    -4.3   -8.1   -0.6
I     6.4   -6.0   -2.7
I     7.4    0.2    5.7
H    -7.4    5.0    2.7
H    -2.7    2.7   -8.6
H     6.2    2.1    6.8
H    -0.4   -4.8   -8.1
H     4.4    1.7   -8.2
H    -8.0   -5.2    0.2
H    -5.4    3.0    7.3
P     5.1   -8.1   -0.6
I    -6.6   -0.2   -6.9
P     5.2    8.1   -0.6
P    -9.0   -0.1    3.6
I    -7.6    2.0    5.6
H     0.3    9.7    0.2
P     9.7   -0.1   -0.6
H    -4.9    1.7   -8.2
H    -7.9    4.0    4.0
C     4.7    2.8    8.1
C    -4.7    2.8    8.1
H     4.4    3.5   -8.0
H     1.3   -5.2   -8.1
P    -4.2   -8.0    3.6
P    -4.1    8.1    3.6
H    -0.3   -4.7    8.7
I     3.9   -5.9   -6.9
C     0.4   -5.4    8.3
I     3.8    6.1   -6.8
H     4.6    1.9    8.6
I    -7.8   -2.2    5.7
H    -4.9    3.5   -8.0
H    -4.8    1.9    8.6
H    -8.7   -4.6   -2.0
H     6.1    3.8    6.9
N     6.0    2.9    7.5
N    -8.3    4.7    3.3
I     2.7   -7.8    5.7
I    -0.9   -1.9    9.9
H     0.0   -9.6    3.1
I    -0.7    2.3    9.8
H    -8.9    4.2    2.6
H     1.4   -5.1    8.6
C     0.3   -5.5   -8.5
C     4.5    2.7   -8.7
H     9.0   -4.8    0.3
P     5.1   -8.0    3.6
H     1.1   10.0   -2.0
H    -8.4    4.5   -3.7
P    -9.1   -0.1   -4.8
I     2.8   -0.1    9.9
I   -10.0    2.1    1.5
C    -4.8    2.7   -8.7
N    -3.5    2.8   -9.3
P     5.2    8.1    3.6
P    -4.4   -8.1   -4.8
P    -4.3    8.1   -4.8
P     9.8   -0.1    3.6
I     6.3    6.0    5.8
H     0.1   -6.5   -8.2
I     2.8    8.3    5.7
C    -9.0   -5.5   -0.1
I     6.5   -6.0    5.7
H     4.6    3.7    8.8
H     8.1    5.2   -4.4
H     8.7   -5.7   -1.9
I    -5.4   -5.9   -6.9
P     5.0   -8.1   -4.8
H     3.8    2.8   -9.5
H    -8.4   -6.2   -2.0
I    -1.8    7.9   -6.9
I   -10.4   -2.1    1.5
N    -9.0   -5.5   -1.6
H     0.8   -9.9   -4.0
H    -4.8    3.7    8.8
H    -7.7    5.2   -5.2
H    -3.3    2.0  -10.0
I    -5.6    6.1   -6.8
C     0.5   10.7   -0.1
P     5.1    8.1   -4.8
H    -0.5   10.5   -1.9
H     0.2   -6.4    8.6
I    -6.7   -7.9   -2.6
P     9.7   -0.1   -4.8
H    -9.7   -4.8    0.3
N     0.4   10.7   -1.6
I    -2.9   10.1   -2.7
I    -6.6    8.2   -2.6
I    -1.9   -8.3   -6.9
I     3.8  -10.1    1.6
H     0.9   -9.9    4.6
C    -8.5    5.3   -4.4
I     8.3   -2.1   -6.9
H     9.9    4.2    2.6
H     6.8    2.9    8.2
H    -3.3    3.7   -9.9
C     0.3  -10.3    3.9
I    -3.2  -10.2   -2.7
H     1.5   11.0    0.2
I     7.6    8.0    1.5
I     4.1   10.3    1.5
H     6.6    2.7   -8.6
H    10.0   -4.6   -2.0
I     7.5   -8.2    1.5
C     9.7   -5.5   -0.1
I     8.5    2.1   -7.0
H     8.8    5.4    4.3
N     9.7   -5.5   -1.6
H    -8.5    6.3   -4.0
H    -9.2   -6.5    0.2
H     8.8    4.3   -5.6
I    -2.1    0.0  -11.1
I    10.7   -2.3   -2.7
H    -3.3   -2.4   10.6
H     0.6   -4.6  -10.4
H    -5.6    2.8   -9.5
N     5.9    2.8   -9.3
C    -9.0    5.8    3.9
N     0.3   -5.5  -10.0
H    -0.2   11.4    0.3
H    -8.4    6.3    4.6
I     1.4   -2.3  -11.1
N     8.9    5.2   -5.1
I     1.6    1.9  -11.2
H     9.5   -6.5    0.2
I    11.1    1.9   -2.7
H    -0.6  -10.7    4.3
H     1.8  -11.1    2.7
H    -8.6   -4.4    6.4
H     4.5   -1.8   10.6
H   -10.0   -5.7   -1.9
I    -5.3   10.3    1.5
I    -5.6  -10.1    1.6
H    -9.2    6.5    3.1
H    -0.8  -10.2   -5.7
I    -6.7   -7.8    5.7
C     0.8  -10.9   -4.4
H    -4.9   -1.8   10.6
I   -11.5    0.1   -2.7
P    -8.9    0.0    7.8
H     0.8   11.6   -2.0
I    -6.5   -0.1    9.9
H     6.1    2.0  -10.0
H    -0.6   -5.7  -10.4
H    10.3    4.5   -3.7
H    -1.3  -11.0   -4.4
H     9.5    6.5    3.1
N    10.5    4.7    3.3
H    10.8   -5.2    0.2
P    -4.2   -8.0    7.8
P     0.4    0.1   12.0
C     9.7    5.8    3.9
N     1.0  -11.5    3.3
I    -2.8   10.2    5.7
H     8.7    6.0   -5.7
N    -4.2   -2.6   10.9
H     1.2   10.1    6.4
H    -4.6   -3.5   10.6
H    -0.4    4.4   11.2
I    -6.6    8.3    5.7
P    -4.1    8.2    7.8
H    -9.9    5.4    4.3
H     4.8   -3.5   10.6
H     6.0    3.7   -9.9
I     4.0   -5.8    9.9
I    -3.2  -10.2    5.8
H    -8.3   -6.1    6.4
N    -0.6  -11.0   -5.1
H     1.0   -6.3  -10.4
H    -9.9    4.3   -5.6
H    10.8    4.0    4.0
H    10.3   -6.2   -2.0
N    -9.8    5.2   -5.1
H     1.5  -11.0   -5.2
H     0.9  -11.6   -3.7
H     8.8   -5.5    6.4
I     6.2  -10.2   -2.7
P     5.1   -8.0    7.8
H     0.4  -12.0    2.6
I    12.2   -0.2    1.4
I     6.5   10.1   -2.7
C    10.2    5.3   -4.4
N     5.1   -2.6   10.9
I     3.9    6.2    9.9
H     6.1   -2.4   10.6
N    -8.9   -5.4    6.8
H    -0.4   10.6    6.4
I    10.9   -2.2    5.7
P     5.2    8.2    7.8
I   -10.2    2.1   -7.0
P     9.8    0.0    7.8
I    11.1    2.0    5.6
H   -10.6    5.2   -4.4
H    -8.0   -5.2   -8.1
I    -5.3   -5.8    9.9
H     0.2    9.6   -8.2
H    -0.5    6.1   11.1
H    11.3    5.0    2.7
I   -10.4   -2.1   -6.9
H    10.3    6.3   -4.0
I   -11.4    0.2    5.7
P    -9.0   -0.1   -9.0
I     3.7  -10.1   -6.8
H    -7.9   -5.1    8.6
P    -4.3    8.1   -9.0
H    10.1   -4.4    6.4
N     0.5   10.8    6.8
H     1.3  -12.2    4.0
I    -3.2    5.8  -11.0
P    -4.4   -8.1   -9.0
N    -0.4    5.3   11.7
H     1.7    5.4   11.6
H   -12.6    2.7    0.4
I     7.5    7.9   -6.9
I    -1.7    8.1    9.9
I    -5.4    6.2    9.9
I    -1.8   -8.1    9.9
H    10.4    6.3    4.6
H   -10.0    6.0   -5.7
H     8.9   -4.8   -8.1
I     4.0   10.3   -6.9
I    -3.0   -6.1  -11.1
H    -9.9   -5.5    6.4
I     7.4   -8.3   -6.9
H     0.3    9.8    8.6
N     9.8   -5.4    6.8
P     5.1    8.1   -9.0
P     5.0   -8.1   -9.0
H    -8.3   10.0   -2.0
H    -3.7  -12.5   -1.1
I     8.4   -1.9    9.9
H   -12.7   -2.6    2.2
H    -4.1   -1.8  -12.4
H    -0.7  -11.9   -5.6
H    11.0    5.2   -5.2
P     0.3   -0.2  -13.2
I     7.2    0.0  -11.1
I     6.2  -10.2    5.8
P     9.7   -0.1   -9.0
H    -9.1    9.7    0.2
H     4.0   -3.1  -12.3
I     8.7    2.3    9.8
C    -8.9   -5.4    8.3
H    -3.6   -3.6  -12.3
H     4.5  -12.6    0.2
H     9.1   -4.7    8.7
C    -4.2   -2.6   12.4
H   -13.3    1.3   -1.5
I     6.6   10.2    5.7
H     0.9   11.7    6.4
H     1.3    3.9  -12.8
I    -5.7  -10.1   -6.8
I    -5.3   10.3   -6.9
H   -12.9    3.6   -1.1
H    -4.0   -1.6   12.8
H    -4.5   12.5    2.3
H    -7.9   11.0    0.2
H    -4.9  -12.6    0.2
H     5.2   -1.8  -12.4
C     1.0    5.5   12.4
H    -0.7    5.3  -12.5
H    13.3    2.1   -1.6
C    -9.0   -5.5   -8.5
H    -1.1    5.4   12.4
H    -9.8   -4.8   -8.1
H     4.8   12.5    2.3
C     0.4   10.7   -8.5
C     0.5   10.8    8.3
H     9.6    9.7    0.2
H    -3.5   -3.3   12.8
H    -8.6   -9.9   -4.0
H     0.9    6.2  -12.2
C     5.1   -2.6   12.4
H    10.4   -6.1    6.4
C    -4.4   -2.8  -12.7
H    -7.5  -11.1    2.7
H     1.4   10.9   -8.1
H     4.1   -2.9   12.8
C   -13.4    3.0   -0.3
H    13.7    1.2   -0.2
I    -7.8    1.9  -11.2
