         400
 sphere cut out from bulk 
P     0.3    0.5    0.8
I    -0.4    0.6   -2.4
I    -2.3   -1.5    1.3
I     2.2   -2.1    0.3
H     0.5   -3.0   -1.5
I    -1.6    3.0    1.3
I     2.9    2.4    0.3
H    -3.0    1.2   -2.4
H     0.1    3.7   -1.5
I     0.7    0.4    3.9
H     3.4   -0.4   -2.4
N     0.1   -3.5   -2.4
H    -0.9   -3.4   -2.4
H     0.9   -2.9    3.0
H    -3.0    0.0    3.1
H    -4.0   -0.8   -1.5
H     0.5   -3.0   -3.2
N    -4.0    1.1   -2.4
C     0.5    4.2   -2.4
H    -2.5    1.4    3.9
H    -4.4    1.5   -1.5
H     0.1    3.7   -3.3
H     4.5    1.5   -1.5
H     1.6    4.1   -2.4
C    -4.4   -0.4   -2.4
C     4.5   -0.4   -2.4
N    -3.2    0.6    3.9
H    -4.0   -0.8   -3.3
H     4.9   -0.8   -1.5
H    -1.4   -3.1    3.9
C     0.7   -3.5    3.9
H     3.6    0.2    3.9
H     4.1    1.7    3.0
C     0.5   -4.9   -2.4
P     0.3    0.5   -5.5
N     4.9    1.1   -2.4
H    -0.9   -4.5    3.1
H     0.1   -5.4   -1.5
H    -0.9    4.6    3.1
N    -0.7   -3.9    3.9
H    -3.0    0.0    4.8
H     0.9   -2.9    4.8
H    -4.4    1.5   -3.2
H     4.5    1.5   -3.2
H     1.6   -5.0   -2.4
I    -3.5   -4.0   -2.4
I     2.2   -2.1   -5.0
H    -4.8    1.7    3.0
P    -4.2   -4.1    0.8
C     4.3    1.1    3.9
H     4.9   -0.8   -3.3
H    -5.5   -0.4   -2.4
H     1.4   -4.3    3.9
N     0.1    5.6   -2.4
C    -4.6    1.1    3.9
I     2.9    2.4   -5.0
P     4.7   -4.1    0.8
H    -0.9    5.7   -2.4
H     0.1   -5.4   -3.3
H     0.5    6.1   -1.5
H     1.4    4.8    3.9
I    -1.6   -6.1    1.3
H     5.9    1.2   -2.4
N    -0.7    5.2    3.9
I    -6.1    2.4    0.3
I    -2.3   -1.5   -6.0
H    -5.3    0.2    3.9
H     4.1    1.7    4.8
P    -4.2    5.0    0.8
I    -3.5    5.1   -2.4
H    -0.9   -4.5    4.8
H     5.9    0.0    3.1
H    -0.9    4.6    4.8
I    -1.6    3.0   -6.0
H     0.5    6.1   -3.2
C     0.7    5.6    3.9
P     4.7    5.0    0.8
I     6.7   -1.5    1.3
N     5.7    0.6    3.9
H     0.9    6.2    3.0
H    -4.8    1.7    4.8
I    -6.8   -2.1    0.3
P     0.3    0.5    7.1
I     5.4   -4.0   -2.4
I    -2.3   -1.5    6.6
I     4.3   -4.2    3.9
H    -1.4    5.9    3.9
I     2.9   -6.7    0.3
I     2.2    7.0    0.3
I    -4.6   -4.2    3.9
I    -1.6    3.0    6.6
H     5.9    0.0    4.8
I     4.3    4.9    3.9
H     6.4    1.4    3.9
I     5.4    5.1   -2.4
I    -4.6    4.9    3.9
H     0.9    6.2    4.8
I     7.3    3.0    1.3
I    -2.3    7.6    1.3
P    -4.2   -4.1   -5.5
I     2.2   -2.1    7.6
I    -6.1    2.4   -5.0
P     4.7   -4.1   -5.5
H     0.9   -2.9   -7.7
H    -3.0    0.0   -7.8
I     2.9    2.4    7.6
P    -4.2    5.0   -5.5
P    -8.6    0.5    0.8
P     0.3   -8.6    0.8
I    -1.6   -6.1   -6.0
I    -6.8   -2.1   -5.0
I     0.7    0.4   -8.6
H    -7.3    4.1   -2.4
H    -3.0   -7.9   -2.4
P     4.7    5.0   -5.5
I     2.9   -6.7   -5.0
I     8.5    0.6   -2.4
I     2.2    7.0   -5.0
I    -0.4   -8.5   -2.4
H    -4.4   -7.6   -1.5
H     4.5   -7.6   -1.5
H     4.1    1.7   -7.7
H     8.0   -3.4   -2.4
H    -2.5   -7.7    3.9
H     4.1   -7.4    3.0
I    -6.1   -6.7    0.3
H    -8.4   -3.0   -1.5
H    -8.0   -2.9    3.0
I     6.7   -1.5   -6.0
H    -0.9   -4.5   -7.8
I    -8.2    0.4    3.9
H     7.6   -3.1    3.9
H    -0.9    4.6   -7.8
I    -1.6   -6.1    6.6
H    -2.5    1.4   -8.6
H    -7.3   -5.0   -2.4
P    -4.2   -4.1    7.1
N    -3.2    0.6   -8.6
H    -4.8    1.7   -7.7
P     9.2    0.5    0.8
N    -4.0   -8.0   -2.4
H    -4.0    8.3   -1.5
H    -1.4   -3.1   -8.6
H    -4.4   -7.6   -3.2
H    -4.8   -7.4    3.0
C     0.7   -3.5   -8.6
H     4.5   -7.6   -3.2
H     3.6    0.2   -8.6
P     4.7   -4.1    7.1
H    -8.4   -3.0   -3.2
I     6.7   -1.5    6.6
N    -0.7   -3.9   -8.6
H    -7.5   -4.3    3.9
I     7.3   -6.1    1.3
H     3.4    8.7   -2.4
I     0.7   -8.7    3.9
P     0.3    9.6    0.8
I    -9.3    0.6   -2.4
P    -4.2    5.0    7.1
N     4.9   -8.0   -2.4
C    -8.4    4.2   -2.4
H    -8.8    3.7   -1.5
I    -6.8    7.0    0.3
H     8.0   -4.5    3.1
C     4.3    1.1   -8.6
H     8.0    4.6    3.1
C    -8.2   -3.5    3.9
N    -8.8   -3.5   -2.4
H    -4.0    8.3   -3.3
H     4.9    8.3   -1.5
H    -7.5    4.8    3.9
H     4.1   -7.4    4.8
H     1.4   -4.3   -8.6
H     5.9    0.0   -7.8
H    -8.0   -2.9    4.8
H     9.0    3.7   -1.5
C    -4.6    1.1   -8.6
H     0.5   -3.0    9.4
I     7.3    3.0   -6.0
P     4.7    5.0    7.1
N    -3.2   -8.5    3.9
I    -2.3    7.6   -6.0
C     4.3   -8.0    3.9
N     8.2   -3.9    3.9
I    -0.4    9.6   -2.4
H    -3.0    0.0   -9.5
H     1.4    4.8   -8.6
N     9.0   -3.5   -2.4
H     0.9    6.2   -7.7
I    -6.1    2.4    7.6
H     0.9   -2.9   -9.5
H     9.4   -3.0   -1.5
C    -8.4   -4.9   -2.4
H     0.1    3.7    9.3
C    -4.6   -8.0    3.9
H    -3.0   -9.1    3.1
H    -4.8   -7.4    4.8
C    -4.4    8.7   -2.4
H    -3.0    9.1    3.1
N    -0.7    5.2   -8.6
C     4.5    8.7   -2.4
H     8.0    5.7   -2.4
H    -5.3    0.2   -8.6
H    -8.8    3.7   -3.3
H     5.9   -7.9   -2.4
I     6.7    7.6    1.3
H     4.9    8.3   -3.3
H    -4.0   -0.8    9.3
P    -8.6    0.5   -5.5
P     0.3   -8.6   -5.5
I    -0.4    0.6   10.2
H     9.0    3.7   -3.3
I     0.7    9.5    3.9
I     7.3    3.0    6.6
I    -2.3    7.6    6.6
I    -6.1   -6.7   -5.0
C     0.7    5.6   -8.6
I    -6.8   -2.1    7.6
H     8.0   -4.5    4.8
N     5.7    0.6   -8.6
H     3.6   -8.9    3.9
H     7.6    5.9    3.9
H     8.0    4.6    4.8
H     3.4   -9.5   -2.4
H     9.4   -3.0   -3.2
I     9.7    0.4    3.9
H    -8.8   -5.4   -1.5
N     8.2    5.2    3.9
H    -8.4    6.1   -1.5
H    -4.4    1.5    9.4
I     2.9   -6.7    7.6
H     4.5    1.5    9.4
I     2.2    7.0    7.6
H    -5.5    8.7   -2.4
I     4.3   -4.2   -8.6
H     4.1    1.7   -9.5
H    -0.9   -4.5   -9.5
C     9.4    4.2   -2.4
H    -0.9    4.6   -9.5
H     9.0   -5.4   -1.5
H     4.9   -0.8    9.3
H    -1.4    5.9   -8.6
H    -8.0    6.2    3.0
H     9.8   -2.9    3.0
H    -9.8   -3.4   -2.4
I    -4.6   -4.2   -8.6
H    -3.0   -9.1    4.8
N    -8.8    5.6   -2.4
C    -4.4   -9.5   -2.4
C    -8.2    5.6    3.9
H    -3.0    1.2   10.2
H    -3.0    9.1    4.8
H     6.4   -7.7    3.9
H     3.6    9.3    3.9
P     9.2    0.5   -5.5
C     4.5   -9.5   -2.4
H     0.1   -5.4    9.3
H     3.4   -0.4   10.2
H    -4.0   -9.9   -1.5
N     0.1   -3.5   10.2
H    -0.9   -3.4   10.2
H    -4.8    1.7   -9.5
I     4.3    4.9   -8.6
H     6.4    1.4   -8.6
H    -8.4    6.1   -3.2
H    -8.8   -5.4   -3.3
C     9.4   -4.9   -2.4
N     9.0    5.6   -2.4
I    -6.8    7.0   -5.0
I    -2.3  -10.6    1.3
N    -3.2    9.7    3.9
C     9.6   -3.5    3.9
N     5.7   -8.5    3.9
H    -3.0   10.3   -2.4
H     9.0   -5.4   -3.3
I    -4.6    4.9   -8.6
N    -4.0    1.1   10.2
P     0.3    9.6   -5.5
I   -10.6    3.0    1.3
C     0.5    4.2   10.2
H    -5.3   -8.9    3.9
N    -9.6   -3.9    3.9
H     1.6    4.1   10.2
C    -4.4   -0.4   10.2
P    -8.6    0.5    7.1
P     0.3   -8.6    7.1
H     5.9    0.0   -9.5
H    -4.0   -9.9   -3.3
C     4.5   -0.4   10.2
H     4.9   -9.9   -1.5
I     7.3   -6.1   -6.0
N    -4.0   10.2   -2.4
H     0.5    6.1    9.4
H    -9.8   -4.5    3.1
H    -9.8    4.6    3.1
H    -5.5   -9.5   -2.4
H     5.9   -9.1    3.1
H    -8.0    6.2    4.8
I    11.1   -2.1    0.3
H     9.8   -2.9    4.8
H     5.9    9.1    3.1
H     9.4    6.1   -1.5
C     0.5   -4.9   10.2
I   -11.2   -1.5    1.3
N     4.9    1.1   10.2
H    -5.3    9.3    3.9
H     0.9    6.2   -9.5
H   -10.3   -3.1    3.9
I     2.2  -11.2    0.3
H     0.5   -3.0   11.1
H     1.6   -5.0   10.2
H    -2.5   10.5    3.9
H     4.1   -7.4   -7.7
I    -3.5   -4.0   10.2
H    10.5    4.1   -2.4
N     4.9   10.2   -2.4
H    -8.0   -2.9   -7.7
I     7.3   -6.1    6.6
H     4.9   -9.9   -3.3
N    -9.6    5.2    3.9
H    -5.5   -0.4   10.2
H    -9.8    5.7   -2.4
H    -4.4   10.6   -1.5
H     4.5   10.6   -1.5
P     9.2    0.5    7.1
I    -2.3   -1.5  -11.3
N     0.1    5.6   10.2
H     9.4    6.1   -3.2
I     6.7    7.6   -6.0
H     0.1    3.7   11.1
C     4.3   10.2    3.9
H    -4.8   -7.4   -7.7
H    -0.9    5.7   10.2
I    -6.1   -6.7    7.6
H    -9.8   -4.5    4.8
C     9.6    5.6    3.9
P     0.3    0.5  -11.8
H    -9.8    4.6    4.8
H    10.3   -4.3    3.9
H     5.9   -9.1    4.8
H    -4.0   -0.8   11.1
I    -1.6    3.0  -11.3
C    -4.6   10.2    3.9
H    -2.5   -7.7   -8.6
H    10.5   -5.0   -2.4
H     5.9    9.1    4.8
I     2.9   11.5    0.3
H     5.9    1.2   10.2
I    -8.2    0.4   -8.6
H     7.6   -3.1   -8.6
N     5.7    9.7    3.9
P     0.3    9.6    7.1
H     4.1   10.8    3.0
I    -3.5    5.1   10.2
H    -4.4   10.6   -3.2
H     4.5   10.6   -3.2
H    10.3    4.8    3.9
H     9.8    6.2    3.0
I    11.8    2.4    0.3
H    -4.4    1.5   11.1
H     4.5    1.5   11.1
I     6.7    7.6    6.6
H     8.0   -4.5   -7.8
H     8.0    4.6   -7.8
H     5.9   10.3   -2.4
H    -4.8   10.8    3.0
H     4.9   -0.8   11.1
P    -8.6   -8.6    0.8
H   -11.5    1.4    3.9
H   -11.9    1.2   -2.4
H     0.5  -12.1   -1.5
I   -10.6   -6.1    1.3
I     5.4   -4.0   10.2
H    -7.5   -4.3   -8.6
I     8.5   -8.5   -2.4
I    -1.6   12.1    1.3
I    -6.8    7.0    7.6
I     0.7   -8.7   -8.6
H   -11.9    0.0    3.1
I    11.1   -2.1   -5.0
H    -3.0   -9.1   -7.8
H     0.1   -5.4   11.1
H     0.9  -12.0    3.0
H    -3.0    9.1   -7.8
I    -2.3  -10.6   -6.0
C    -8.2   -3.5   -8.6
H    -7.5    4.8   -8.6
I     2.2  -11.2   -5.0
I   -10.6    3.0   -6.0
H   -10.3    5.9    3.9
H     4.1   10.8    4.8
H     0.5  -12.1   -3.2
N    -3.2   -8.5   -8.6
C     4.3   -8.0   -8.6
N     8.2   -3.9   -8.6
H     9.8    6.2    4.8
H    12.3   -0.4   -2.4
I     6.7  -10.6    1.3
I    -8.2   -8.7    3.9
H     0.5    6.1   11.1
