         400
 sphere cut out from bulk 
P    -1.2   -1.2    0.0
I     0.6    1.6    0.0
H     2.0   -1.0   -2.4
I     1.4   -2.9   -0.5
H    -0.4    2.3    2.4
H     2.5   -0.7    2.2
H    -1.4    2.7   -1.6
I    -0.8   -1.3    3.2
I    -1.4   -0.8   -3.2
H    -1.5    1.7   -2.9
I    -3.8    0.8    0.4
N    -1.7    2.7   -2.6
H     3.0    0.3   -2.8
N     2.7   -0.6   -3.1
C     3.0   -1.5    2.8
N    -0.5    2.8    3.3
H     2.3   -2.2    3.2
H     2.2   -0.5   -4.0
H    -0.9    2.2    4.1
H     0.5    3.1    3.6
P     3.3    3.4    0.0
H     3.8   -2.0    2.1
H    -2.7    2.9   -2.6
H     0.1    3.5   -3.2
I    -3.1   -3.7   -0.0
H    -1.0   -4.4    2.3
C    -0.9    3.7   -3.3
H     4.3   -1.6   -2.3
H    -2.3    3.7    2.8
C     3.8   -1.5   -3.2
C    -1.3    4.0    3.1
H    -0.9    4.6    2.3
I     5.2    0.8    0.4
H    -1.3   -4.3   -2.9
H    -4.6   -1.6   -2.3
N     3.8   -0.7    3.8
H     3.1   -0.2    4.5
H     3.4   -2.5   -3.6
H     4.5   -0.1    3.4
H    -4.5   -0.1    3.4
H    -1.2    4.7   -2.9
I     3.7    2.9   -3.1
I     3.1    3.7    3.2
H    -1.3    3.7   -4.4
H    -5.2   -2.0    2.1
C    -1.4   -5.0    3.1
H    -4.4   -1.1   -4.0
I    -3.0    5.3   -0.0
H     4.5   -1.1   -4.0
H    -1.4   -4.4    4.1
I     1.5    6.0   -0.5
H    -1.3    4.6    4.1
C    -5.1   -1.5   -3.2
C    -1.0   -5.2   -3.3
H     0.0   -5.5   -3.2
H     4.3   -1.4    4.4
P     3.2   -5.6    0.0
N    -5.2   -0.7    3.8
H    -2.4   -5.3    2.8
P    -1.0   -1.0    6.3
H    -4.6   -1.4    4.4
P    -1.1   -1.2   -6.4
I     1.6    0.7   -6.4
H    -6.0    0.3   -2.8
P    -5.6    3.4    0.0
I     1.7    0.8    6.3
H    -1.5   -6.3   -1.6
C    -5.9   -1.5    2.8
I    -2.8    1.6    5.9
I    -5.2    2.9   -3.1
H    -6.5   -0.7    2.2
I     3.0   -5.3    3.2
H     0.4   -5.9    3.6
I     5.8   -3.7   -0.0
H    -1.3   -5.3   -4.4
N    -1.8   -6.3   -2.6
N    -6.3   -0.6   -3.1
N    -0.6   -6.2    3.3
H    -5.5   -2.5   -3.6
I     0.8   -3.7   -6.0
H    -0.5   -6.7    2.4
H    -2.8   -6.1   -2.6
H    -5.8   -0.2    4.5
H     6.2    2.9   -2.6
I     0.5   -7.4    0.0
H    -6.9   -1.0   -2.4
I    -2.9    1.4   -6.8
I    -5.9    3.7    3.2
H    -6.6   -2.2    3.2
I     1.0   -3.5    6.7
I     3.6   -6.0   -3.1
I    -3.6   -2.9    6.3
P     7.7   -1.2    0.0
H    -6.8   -0.5   -4.0
P    -1.1    7.8    0.0
H     2.4    6.8    3.2
I     5.9    5.3   -0.0
P     3.4    3.3   -6.3
H    -1.0   -6.8    4.1
H    -1.6   -7.2   -2.9
P    -5.7   -5.6    0.0
I     0.9    5.3   -6.0
I    -3.7   -3.1   -6.4
H     6.6    3.7    2.8
P     3.6    3.5    6.4
I    -7.6   -2.9   -0.5
H     7.5    2.7   -1.6
N     7.2    2.7   -2.6
H     7.4    1.7   -2.9
H     3.5    6.5   -3.6
H     3.8    7.0    2.1
I     7.6   -0.8   -3.2
I    -0.7    7.7    3.2
I    -8.3    1.6    0.0
C     3.1    7.5    2.8
H     2.1    8.0   -2.4
I    -6.0   -5.3    3.2
I    -5.3   -6.0   -3.1
I     6.2    1.6    5.9
I     1.1    5.4    6.7
I     5.4   -2.9    6.3
H     3.0   -0.4   -8.2
H     4.4    7.3   -2.3
I     8.2   -1.3    3.2
I     5.2   -3.1   -6.4
H     6.5   -5.3    2.8
I    -1.3    8.2   -3.2
H    -5.1    7.0    2.1
H     2.6    8.2    2.2
H    -4.5    7.3   -2.3
H    -1.0    2.0   -8.7
H     2.3   -0.3    8.7
C     3.9    7.4   -3.2
H     6.1   -6.1   -2.6
P    -5.5    3.3   -6.3
P    -5.4    3.5    6.4
I    -3.9   -8.2    0.4
P     3.5   -5.5    6.4
P     3.3   -5.6   -6.3
H    -5.4    6.5   -3.6
C     7.6    4.0    3.1
H     8.6    2.3    2.4
I     6.0    1.4   -6.8
H     7.7   -4.3   -2.9
H    -1.1    3.9    8.3
H     8.1    2.2    4.1
N     2.8    8.4   -3.1
H     8.0   -4.4    2.3
I    -3.5    6.1    6.3
H     4.2   -1.6   -8.3
C     8.0    3.7   -3.3
I    -3.6    5.9   -6.4
N     8.5    2.8    3.3
H     2.9   -8.6   -2.8
C    -5.0    7.4   -3.2
H     7.8    4.7   -2.9
C     7.5   -5.0    3.1
H     0.4    2.9   -9.1
H     7.7    3.7   -4.4
I    -7.5    6.0   -0.5
H     8.1    4.6    2.3
H     7.5   -4.4    4.1
I    -1.2   -0.6    9.5
N     3.7   -0.9   -8.9
I     5.1   -8.2    0.4
I    -7.3    0.8    6.3
H    -8.4    3.1    3.6
H     2.3    8.5   -4.0
H    -4.8   -1.6   -8.3
I    -0.9   -1.4   -9.5
I     9.6    1.6    0.0
H     7.6    4.6    4.1
I    -7.4    0.7   -6.4
N    -0.6    2.6   -9.4
H    -4.3   -1.0    8.7
H    -4.3    7.8   -4.0
H    -1.5    4.4   -8.6
H     4.4    7.6    4.4
H     7.4   -6.3   -1.6
N     7.1   -6.3   -2.6
H    -1.2   -5.1    8.3
I    -2.9   -7.4    5.9
H    -4.5    7.6    4.4
N     3.9    8.2    3.8
C    -5.8    7.5    2.8
H    -9.3    2.3    2.4
H    -1.6   -4.6   -8.6
H     4.6    7.8   -4.0
H     4.7   -1.0    8.7
H    -6.5    6.8    3.2
H     2.2   -2.3   -9.5
N     2.8   -0.4    9.6
P    -5.5   -5.5    6.4
H    -8.8    3.5   -3.2
C     7.9   -5.2   -3.3
H    -1.4    1.9    9.8
P    -1.0    7.8   -6.4
H     3.6   -2.3    9.1
P    -5.6   -5.6   -6.3
H    -5.9   -0.4   -8.2
H     0.3    3.7    9.5
P     7.9   -1.2   -6.4
P    -0.9    7.9    6.3
C    -0.8    3.9    9.4
H     3.1    9.3   -2.8
P    -1.3  -10.1    0.0
H     2.4   -9.7    2.2
H     7.6   -5.3   -4.4
P   -10.2   -1.2    0.0
I     5.3    5.9   -6.4
H     9.1    3.5   -3.2
H     4.3   -0.2   -9.3
P     8.0   -1.0    6.3
I    -9.7   -1.3    3.2
I     5.5    6.1    6.3
H     3.2    8.8    4.5
C     4.0   -1.4    9.5
N    -9.4    2.8    3.3
I    -1.5   -9.8   -3.2
N    -5.3   -0.9   -8.9
H    -4.6   -0.2   -9.3
N    -5.1    8.2    3.8
N     2.6   -9.6   -3.1
H     3.1    0.5    9.9
H     1.9  -10.0   -2.4
C    -1.5    3.8   -9.6
I    -3.7    9.8    0.4
I     1.6   -8.1    6.3
H     2.1   -9.4   -4.0
C     2.9   -1.6   -9.9
H    -4.4    8.9    3.4
H    -0.5    2.1  -10.3
I     2.9    3.5   -9.5
H     2.1   -0.8   10.3
H     9.5    3.1    3.6
H     4.6    8.9    3.4
I     1.5   -8.3   -6.4
I     0.7   10.6    0.0
H     4.4   -9.0    3.4
I    -3.0   -7.5   -6.8
H    -6.4    8.2    2.2
N    -1.6    2.9   10.1
H     3.1   -9.2    4.5
H    -1.1   -4.1    9.8
H    -4.6   -9.0    3.4
C    -0.9   -5.1    9.4
H     7.3   -7.2   -2.9
I    -8.1   -3.7   -6.0
I    -0.9  -10.2    3.2
H    -2.5    3.5   -9.9
I     3.9    3.1    9.6
I    10.4   -2.9   -0.5
C    -5.0   -1.4    9.5
H    -6.8    8.0   -2.4
H    -2.6    3.0   10.1
I   -10.3   -0.8   -3.2
H     2.4   -0.9  -10.5
H   -10.4    2.7   -1.6
H     0.2   -5.3    9.5
H    -5.4   -2.3    9.1
N    -6.2    8.4   -3.1
H    -9.8    2.2    4.1
H    -6.1   -8.6   -2.8
H    -6.6   -0.3    8.7
N     8.4   -6.2    3.3
H    -8.9   -5.5   -3.2
H     0.3   -6.1   -9.1
H    -8.5   -5.9    3.6
C    -1.6   -5.1   -9.6
H     9.0   -5.5   -3.2
H    -1.0    4.9    9.8
H   -10.5    1.7   -2.9
I    -8.0   -3.5    6.7
P     7.8    7.8    0.0
N     3.7   -9.7    3.8
H     8.5   -6.7    2.4
H    -9.9   -4.4    2.3
C    -9.9    3.7   -3.3
H    -9.8    4.6    2.3
I     5.3    9.8    0.4
H    -1.1   -6.9   -8.7
C     2.9  -10.4    2.8
I    -8.4   -7.4    0.0
H    -1.4   10.7   -2.9
I     6.1   -7.4    5.9
H     8.0   -6.8    4.1
H    11.0   -1.0   -2.4
I    -5.1    3.1    9.6
N   -10.7    2.7   -2.6
I    -8.0    5.3   -6.0
I     2.8   -5.5   -9.5
H    -1.0    4.5  -10.4
H    -5.9    9.3   -2.8
H    -5.7    8.8    4.5
N    -0.7   -6.3   -9.4
H    -1.1   -4.5  -10.4
H     3.6   -2.2  -10.6
N    -6.1   -0.4    9.6
H   -10.2   -4.3   -2.9
H     4.4   -1.5   10.4
C   -10.3    4.0    3.1
H    -4.5   -1.5   10.4
H    -0.3   11.2    2.4
H    -5.8    0.5    9.9
H    -6.7    8.5   -4.0
H   -10.1    4.7   -2.9
H    -2.6   -5.5   -9.9
H    -1.3    2.9   11.1
C     3.7  -10.5   -3.2
H     9.4   -5.9    3.6
H     4.2  -10.6   -2.3
I     1.7    9.6   -6.4
H    11.4   -0.7    2.2
I     7.7    8.2   -3.2
N    -5.3   -9.7    3.8
H   -10.2    3.7   -4.4
I    -7.9    5.4    6.7
H     4.4  -10.1   -4.0
I     8.3    7.7    3.2
C    -6.1   -1.6   -9.9
C   -10.0   -5.2   -3.3
H     3.7  -11.0    2.1
H    -4.5  -10.1   -4.0
I     5.9   -7.5   -6.8
I    -6.0    3.5   -9.5
H     2.3    6.6   -9.5
H    -5.9   -9.2    4.5
H     2.2  -11.1    3.2
P    -9.9   -1.0    6.3
N    -9.5   -6.2    3.3
I     1.8    9.8    6.3
I     3.8   -5.9    9.6
H    -9.4   -6.7    2.4
H    -4.7  -10.6   -2.3
H    -6.7   -2.3   -9.5
H    11.2   -0.5   -4.0
H     3.7    6.6    9.1
H    -1.3   11.7   -1.6
H     4.3    7.4   -8.3
P    -1.1  -10.0    6.3
H    -6.6   -9.7    2.2
C   -10.4   -5.0    3.1
H    -0.8   11.2    4.1
H     7.9    2.0   -8.7
N    -6.4   -9.6   -3.1
N    -1.7   -6.1   10.1
H    11.3   -2.2    3.2
P   -10.0   -1.2   -6.4
H   -10.3    4.6    4.1
H    -2.7   -5.9   10.1
I     1.3  -11.9   -0.5
H   -10.4   -4.4    4.1
I     9.5   -7.4    0.0
H    -5.3   -2.2  -10.6
H    -4.7    7.4   -8.3
I     9.8   -3.7   -6.0
H     4.2  -10.4    4.4
N    11.6   -0.6   -3.1
N    -1.6   11.7   -2.6
P    -1.2  -10.2   -6.4
I    10.5    6.0   -0.5
H     7.8    3.9    8.3
H    -1.5   -7.1    9.8
C    -5.2  -10.5   -3.2
H   -11.3    3.7    2.8
I    -0.8    7.5   -9.5
H     7.5    4.4   -8.6
N    -0.4   11.8    3.3
H    -4.7  -10.4    4.4
H     7.4   -4.6   -8.6
I     7.7   -0.6    9.5
H    12.0    0.3   -2.8
H     6.4    3.0   10.1
H     3.1    8.6   -8.2
I    10.5    0.7   -6.4
H   -10.5   -6.3   -1.6
H   -11.7    2.9   -2.6
H     6.5    3.5   -9.9
H    -6.8   -9.4   -4.0
C    -6.0  -10.4    2.8
I    -5.2   -5.9    9.6
H    -6.8   -0.8   10.3
H   -10.3   -5.3   -4.4
H    -5.3  -11.0    2.1
C    12.0   -1.5    2.8
I    -2.7   10.6    5.9
H    -0.6   -6.9  -10.3
I    10.7    0.8    6.3
H    -2.6   11.9   -2.6
H    -7.0  -10.0   -2.4
H    -5.3    6.6    9.1
H     7.7   -5.1    8.3
H    -6.6   -0.9  -10.5
H     3.3  -11.5   -3.6
I     9.9   -3.5    6.7
H     7.6    1.9    9.8
H     2.4    8.7    8.7
I     8.0   -1.4   -9.5
I    -6.1   -5.5   -9.5
H    -4.2    8.0    8.7
