         400
 sphere cut out from bulk 
I    -0.4    0.0   -0.3
P     2.2    1.6    0.6
H    -2.5    0.0    1.7
H    -2.0    1.9   -2.0
H     2.5   -2.5    0.5
H     1.0   -3.2    1.3
H    -0.9   -0.4    3.5
P    -2.3   -2.1   -2.0
H    -2.6   -1.6    2.2
N    -2.8   -0.6    2.5
C     1.8   -3.4    0.6
H     1.4   -3.6   -0.4
H     2.4    0.1   -3.1
I     2.5   -0.3    3.3
C    -2.0   -0.2    3.7
H     1.2   -1.0   -3.9
I     4.1   -0.5   -0.9
H     1.0    0.8   -4.1
C     1.7   -0.0   -4.0
C    -2.6    2.8   -2.0
H    -3.0    3.0   -1.0
I     0.5    3.8    2.3
I     2.0    3.5   -1.9
I    -2.3   -3.8    0.7
H    -2.2    0.8    4.0
H    -1.0    4.2   -1.9
H    -3.8   -0.5    2.7
I     0.3   -3.6   -3.1
I    -4.8   -0.5   -0.9
N    -1.8    4.0   -2.5
I    -2.2   -0.2   -4.6
H    -2.2   -0.9    4.5
H    -3.5    2.7   -2.7
N     2.6   -4.5    1.1
H    -1.4    3.9   -3.4
I    -4.0    3.1    1.7
H     3.0   -4.3    2.0
H     5.1   -0.5    2.7
N     2.6   -0.1   -5.2
H     2.0   -5.4    1.2
H     3.4   -4.8    0.4
H     2.0    3.4    4.4
H    -2.4    4.9   -2.5
I    -0.4   -3.6    4.8
I     4.9    3.1    1.7
H     2.0    5.7    1.2
H     3.2   -0.8   -5.2
H     3.1    0.8   -5.3
H     2.0   -0.1   -6.1
P    -2.2    5.2    3.2
H     6.4    0.0    1.7
H     5.4    2.7   -2.7
N     6.1   -0.6    2.5
P     2.3   -2.1    5.9
H     3.2    2.7    5.2
H     5.9    3.0   -1.0
N     2.6    3.5    5.2
I    -4.0   -4.3   -3.4
H     6.3   -1.6    2.2
I    -0.4    3.8   -5.7
P    -6.7    1.6    0.6
H    -6.4   -2.5    0.5
P    -2.2   -5.8    3.2
H    -2.4   -6.2   -2.5
N     2.6    6.5    1.1
I    -2.2    3.3    5.9
H     1.2    2.6    6.5
H     3.4    6.3    0.4
H    -1.0   -6.9   -1.9
C     6.3    2.8   -2.0
I    -6.4   -0.3    3.3
P     6.6   -2.1   -2.0
H    -6.5    0.1   -3.1
H    -5.5   -4.8    0.4
I     4.9   -4.3   -3.4
H    -2.2   -2.8   -6.5
P     2.3    5.4   -4.5
I     0.3   -0.0    7.4
I     4.0   -4.4    4.4
H     3.1    4.4    5.1
H     6.9    1.9   -2.0
C     1.7    3.5    6.4
H     1.4    7.4   -0.4
H    -5.9   -4.3    2.0
I    -2.3    7.2    0.7
P     2.2   -5.7   -4.5
I     0.5   -7.3    2.3
H     3.0    6.7    2.0
I     6.6   -3.8    0.7
N    -1.8   -7.0   -2.5
P    -2.2    1.6   -7.2
H    -2.2   -4.5   -5.9
H    -5.7   -0.8   -5.2
H     1.0    4.4    6.4
N    -6.3   -4.5    1.1
C    -7.1   -3.4    0.6
H     6.7    0.8    4.0
I    -4.9   -4.4    4.4
C     6.9   -0.2    3.7
C     1.8    7.7    0.6
I     4.0    3.1   -6.1
I    -6.9    3.5   -1.9
H    -5.8    0.8   -5.3
C    -2.0   -3.8   -6.7
H    -1.5   -3.6    7.0
H     1.0    7.9    1.3
H    -0.9   -3.9   -7.0
I     0.3    7.4   -3.1
I     2.0   -7.6   -1.9
H    -1.5   -7.2   -3.4
I     6.7   -0.2   -4.6
H     6.7   -0.9    4.5
H    -5.7    2.7    5.2
I    -4.0   -0.8    7.1
I     0.5    0.2   -8.2
N    -6.3   -0.1   -5.2
C    -7.2   -0.0   -4.0
H    -7.5   -3.6   -0.4
H    -5.5    6.3    0.4
I    -4.9    3.1   -6.1
I    -4.0    6.7   -3.4
I     8.5    0.0   -0.3
H     6.5    4.9   -2.5
N     7.1    4.0   -2.5
I     2.5   -3.8   -7.2
H     2.4    3.7    7.3
H    -3.0   -8.0   -1.0
H    -7.9   -3.2    1.3
I     4.9   -0.8    7.1
H    -2.4   -2.6    7.9
H    -7.7   -1.0   -3.9
H     8.0   -0.4    3.5
I    -0.4    7.4    4.8
H    -6.9   -5.4    1.2
C    -2.6   -8.2   -2.0
H    -6.9    3.4    4.4
N    -1.8   -3.5    8.0
P    -2.3    1.5    8.5
H     2.5    8.5    0.5
H     3.1   -6.6    5.1
H    -5.8    4.4    5.1
H    -7.9    0.8   -4.1
N    -6.3    3.5    5.2
I     4.0    6.7    4.4
I     4.9    6.7   -3.4
H     1.9   -7.6    4.4
H    -6.9    5.7    1.2
I    -4.1   -7.9    1.7
H     7.5    3.9   -3.4
N    -6.3    6.5    1.1
P     6.8    5.2    3.2
H    -2.2    6.6   -5.9
H    -5.9    6.7    2.0
H     7.9    4.2   -1.9
P    -6.7   -2.1    5.9
I    -0.4   -7.2   -5.7
H    -6.9   -0.1   -6.1
H    -1.0   -3.3    8.6
H     1.0   -6.7    6.4
H     6.5   -6.2   -2.5
I    -9.3    0.0   -0.3
I    -4.9    6.7    4.4
N    -2.8   -4.1   -7.9
H    -3.5   -8.3   -2.7
I     4.8   -7.9    1.7
P    -2.3    9.0   -2.0
I    -8.4    3.8    2.3
I     6.7    3.3    5.9
P     6.7   -5.8    3.2
H     3.0    3.1   -8.4
N     2.5   -7.5    5.2
H    -3.8   -4.0   -7.7
H    -2.0   -9.1   -2.0
I     2.0   -4.0    8.5
P    -6.6    5.4   -4.5
I    -4.0   -0.4   -8.8
H     2.0    2.1   -9.2
P     2.2   -9.5    0.6
H     6.7   -2.8   -6.5
H    -3.5   -4.7    7.8
H    -2.5   -3.5   -8.7
I     6.6    7.2    0.7
I    -8.6   -3.6   -3.1
P    -6.7   -5.7   -4.5
I    -2.3   -7.7    5.9
H     6.7   -4.5   -5.9
C    -2.6   -4.6    8.4
H     5.9   -8.0   -1.0
H    -0.9    7.1   -7.0
P     6.7    1.6   -7.2
C     1.7   -7.5    6.4
I     4.9   -0.4   -8.8
H    -2.6   -5.1   -8.2
H    -2.6    9.5    2.2
C    -1.9    7.2   -6.7
H     5.1   -4.0   -7.7
N     2.6    2.9   -9.4
H     1.4   -0.1   10.1
H     1.0    4.3   -9.1
H    -5.8   -6.6    5.1
H    -2.0    5.5    8.4
H    -2.0   -5.5    8.4
P     2.2   -2.0   -9.8
N     7.1   -7.0   -2.5
H     5.4   -8.3   -2.7
C    -7.2    3.5    6.4
H    -1.4    7.4    7.0
H     3.2   -8.3    5.2
I    -6.4   -3.8   -7.2
I     9.2   -3.6   -3.1
C     6.9   -3.8   -6.7
I     9.4    3.8    2.3
H    -9.8   -0.4    3.5
I     8.5   -3.6    4.8
I    -6.9   -7.6   -1.9
H    -7.7    2.6    6.5
C    -7.1    7.7    0.6
H    -2.6    5.9   -8.2
I     2.5    7.2   -7.2
H    -6.5    3.7    7.3
H     9.9   -3.2    1.3
C     6.3   -8.2   -2.0
H    -7.5    7.4   -0.4
H    -3.5    6.3    7.8
H     6.5   -2.6    7.9
H     5.4   -4.7    7.8
I    -2.3    3.6   -9.7
H     2.4   -7.4    7.3
H     7.9   -6.9   -1.9
H    -6.4    8.5    0.5
H    -2.2    8.3   -6.5
H     1.2   -8.4    6.5
H    -5.9    3.1   -8.4
I    -0.4    3.6   10.1
H     9.9    0.8   -4.1
I     4.0   -7.9   -6.1
I     4.1    3.1    9.5
C     1.8    4.1   -9.9
N     6.1   -4.1   -7.9
H     7.4   -3.6    7.0
N    -2.8    6.9   -7.9
H    -3.0   -4.4    9.4
H    10.1   -1.0   -3.9
P     6.6    1.5    8.5
H     1.2   10.1   -3.9
H    -9.9    4.2   -1.9
H     7.4   -7.2   -3.4
H     3.4    2.7  -10.0
C    -2.6    6.4    8.4
H    10.3   -3.6   -0.4
P     2.3    8.9    5.9
I     8.5    3.8   -5.7
I    -0.4  -11.0   -0.3
H    -7.9    4.4    6.4
H     1.0  -10.2   -4.1
I    -9.3   -3.6    4.8
I    -0.4   11.0   -0.3
H     6.7    6.6   -5.9
N    -2.8   10.4    2.5
H    -3.8    7.0   -7.7
I    -4.9   -7.9   -6.1
I    -4.8    3.1    9.5
N    -1.8    7.6    8.0
N    -6.4   -7.5    5.2
H    -2.2  -10.2    4.0
C     1.8    0.2   11.0
H    -7.0   -7.6    4.4
I     2.0    7.0    8.5
H    -7.9    7.9    1.3
N     7.1   -3.5    8.0
P    11.1    1.6    0.6
C    10.7   -3.4    0.6
H   -10.9    1.9   -2.0
H    -0.9   10.7    3.5
H     2.5    1.1   11.0
I    -8.6   -0.0    7.4
H     8.0   -3.9   -7.0
H    -2.2   10.1    4.5
I    -8.4   -7.3    2.3
H    -5.7   -8.3    5.2
P     6.7    9.0   -2.0
C    10.6   -0.0   -4.0
I    -0.4   -3.5  -10.8
H     5.4    6.3    7.8
I     4.1   10.6   -0.9
H     6.4   -3.5   -8.7
H     2.5    5.0   -9.9
H     1.0   -6.7   -9.1
H    -2.5  -11.0    1.7
I    -2.3   -0.3   11.2
H    -2.5   11.0    1.7
H     3.4   -1.2   10.9
C   -10.9   -0.2    3.7
C     6.3   -4.6    8.4
I     2.5   10.7    3.3
P   -11.2   -2.1   -2.0
H    -3.8   10.6    2.7
I    -9.3    3.8   -5.7
H   -11.4    0.0    1.7
H     6.3   -5.1   -8.2
H   -10.4    3.9   -3.4
C    -1.9   10.8    3.7
H     6.9   -9.1   -2.0
H    -1.0    7.7    8.6
H     1.4    3.9  -10.8
H     6.3    9.5    2.2
H     2.4  -10.9   -3.1
P    -6.7   -9.5    0.6
H     5.1    7.0   -7.7
I    10.9    3.5   -1.9
I    -4.8   10.6   -0.9
N    -6.3    2.9   -9.4
I    -6.9   -4.0    8.5
H    11.4   -2.5    0.5
H    11.3    0.1   -3.1
N   -10.7    4.0   -2.5
H    -6.9    2.1   -9.2
I    -8.4    0.2   -8.2
I     6.7   -7.7    5.9
H    -5.5    2.7  -10.0
I    -8.6    7.4   -3.1
H    -2.5    7.5   -8.7
H   -11.1    0.8    4.0
H     1.0    0.4   11.7
I     9.2   -0.0    7.4
H    -2.4    8.4    7.9
H     2.4   11.1   -3.1
H   -11.5   -1.6    2.2
H    -3.0   -0.5  -11.4
C     1.7   11.0   -4.0
N     2.6   -1.0   11.5
I    11.4   -0.3    3.3
C     1.7  -11.0   -4.0
I   -11.2   -3.8    0.7
H     3.1  -10.2   -5.3
H     2.5   -6.1   -9.9
H    -3.0    6.6    9.4
H     3.3   10.2   -5.2
H     3.0   -7.9   -8.4
H     6.3    5.9   -8.2
H    -0.9  -11.4    3.5
I    -2.2   10.8   -4.6
N   -11.7   -0.6    2.5
H     2.0   -1.8   11.7
H     5.9   -4.4    9.4
I    -6.4    7.2   -7.2
C    -2.0  -11.3    3.7
I     2.5  -11.3    3.3
C   -11.5    2.8   -2.0
P    -2.2   -9.4   -7.2
H     5.1   10.6    2.7
I   -11.1   -0.2   -4.6
P    -6.7   -2.0   -9.8
H   -11.1   -0.9    4.5
C     7.0    7.2   -6.7
I     9.4   -7.3    2.3
H     7.9   -3.3    8.6
H    -7.9   -6.7    6.4
N     6.1    6.9   -7.9
C     1.8   -6.9   -9.9
H    -9.9   -6.9   -1.9
H    10.9    3.4    4.4
H     6.9   -5.5    8.4
H    10.9   -5.4    1.2
H     6.9    5.5    8.4
N    -2.8  -11.6    2.5
C    -7.2   -7.5    6.4
I     4.1  -11.5   -0.9
I     9.2    7.4   -3.1
I     8.5    7.4    4.8
H    -6.5   -7.4    7.3
H    -5.5   -1.2   10.9
I     6.6    3.6   -9.7
H    10.1    2.6    6.5
H   -11.9    3.0   -1.0
C     6.3    6.4    8.4
I    -2.3  -11.2   -4.6
H    10.9    5.7    1.2
H    -1.0    0.6  -12.3
N     6.1   10.4    2.5
P     2.2    5.1   11.1
H    -3.8  -11.5    2.7
N    11.5   -4.5    1.1
I    -2.3   -7.4   -9.7
N     2.6   11.0   -5.2
H    10.9   -0.1   -6.1
H     6.7    8.3   -6.5
I     9.4    0.2   -8.2
I    -4.8  -11.5   -0.9
N     2.5  -11.1   -5.2
I     8.5   -7.2   -5.7
H    -7.5   -0.1   10.1
H   -11.3    4.9   -2.5
I     2.0   -0.1  -12.4
H     1.0   11.8   -4.1
H     9.9    4.4    6.4
I    -0.4   -7.5   10.1
P    -6.6    8.9    5.9
N    11.5   -0.1   -5.2
H     2.0   10.9   -6.1
