         400
 sphere cut out from bulk 
P     0.6   -1.2    0.6
I    -1.2    0.8    2.1
I     1.5    1.0   -1.8
I    -1.8   -1.7   -1.8
H     1.2    3.1    0.2
H    -3.4    0.5   -1.5
H    -0.5    3.8    0.2
I     3.3   -0.6    2.0
H     0.1    3.1    2.4
C     0.6    3.9    0.6
P     0.6   -1.3   -3.8
I     2.2   -3.2   -1.8
I    -0.2   -3.9    2.0
H    -3.5    2.2   -1.6
N     0.6    3.9    2.1
H     4.1    1.2   -1.6
N    -3.9    1.3   -1.9
H    -3.2   -3.3   -0.2
H     1.6    3.9    2.4
H    -2.9    1.4   -3.7
H     1.0    4.8    0.2
H     1.2    3.0   -4.0
H    -4.9    1.2   -1.6
H    -3.9   -2.9    2.0
C    -3.9    1.3   -3.4
H     0.1    4.8    2.4
H     1.1   -0.5    5.3
I    -2.4    4.5   -1.8
H    -0.4   -1.3    5.3
H    -0.5    3.7   -4.0
H     4.2   -3.6   -0.2
N    -3.9   -3.9    0.2
N     5.1    1.3   -1.9
P    -3.9    1.3    3.9
H    -4.3    0.3   -3.7
H    -3.0   -4.5    2.0
C    -3.9   -3.9    1.7
N     0.6   -1.3    5.6
H     1.1   -2.2    5.3
H     5.6    0.5   -1.5
C     0.6    3.9   -4.3
H     1.0   -5.6   -1.5
I    -0.9    0.6   -5.8
H     4.7    0.3   -3.7
H    -4.8   -3.6   -0.2
I     4.2    3.9    2.1
I    -5.7   -0.6    2.0
H     5.5    2.2   -1.6
H    -3.7   -4.9   -0.2
H     4.4    2.1   -3.7
H     5.1   -2.9    2.0
C     5.1    1.3   -3.4
H    -3.5   -3.0   -4.2
H    -4.6    2.1   -3.7
H     1.0    4.8   -4.0
N     5.1   -3.9    0.2
H     4.2   -4.5    2.0
I     2.4    1.8    5.7
P     5.1    1.3    3.9
I    -4.8    3.9    2.1
I    -3.0   -1.3    5.7
C     5.1   -3.9    1.7
I     3.0   -1.0   -5.9
H     5.8   -3.3   -0.2
H    -0.4   -6.6   -1.5
H    -0.1   -5.7   -3.7
N     0.6   -6.5   -1.9
I    -0.3   -3.6   -5.8
H     0.1    3.0   -6.2
H    -4.8   -4.5    2.0
I     2.6    6.1   -1.9
I    -2.1    3.3    5.7
N     0.6    3.9   -5.8
H     4.0   -4.0   -4.2
H     5.3   -4.9   -0.2
C    -3.9   -3.9   -4.6
H    -3.3   -4.8   -4.2
C     0.6   -1.3    7.1
H     6.1    1.4   -3.7
C     0.6   -6.5   -3.4
I    -1.3    7.0    2.1
H    -0.0   -0.5    7.5
H     1.6    3.9   -6.2
H     1.6   -6.3   -3.7
P     0.6   -6.5    3.8
P    -3.9    6.4    0.5
I     7.1   -1.7   -1.8
H     5.5   -3.0   -4.2
H     1.1   -7.3   -1.5
I     2.4   -4.5    5.6
I    -3.0   -6.8   -1.8
H    -5.0   -4.0   -4.2
H     5.9   -4.5    2.0
H     1.6   -1.3    7.5
I    -6.8   -3.2   -1.8
H     0.0    4.7   -6.2
I    -7.5    1.0   -1.8
H     0.1   -2.3    7.5
C     5.1   -3.9   -4.6
H    -2.9   -3.8   -6.4
I     7.7    0.8    2.1
I     3.1   -7.2    2.0
I     6.5    4.5   -1.8
P     5.0    6.4    0.5
P     0.6    3.9    7.2
N    -3.9   -3.9   -6.1
I     5.9   -1.3    5.7
H     0.2   -7.4   -3.7
I     4.1    4.2   -5.9
P     0.6   -1.3   -8.2
H    -7.8    3.1    0.2
H    -4.5   -3.1   -6.4
H    -3.4    5.6    5.2
H     4.5   -3.1   -6.4
I    -6.0   -1.0   -5.9
I    -2.1   -5.9    5.6
H     1.1    8.2   -1.5
P    -8.4   -1.2    0.6
P    -3.9    6.5   -3.9
H     5.6   -4.8   -4.2
H    -2.9    1.4   -8.0
I     1.4    6.4    5.6
I    -4.8    4.2   -5.9
H    -7.4    3.9    2.4
N     5.1   -3.9   -6.1
I    -1.3   -8.5    2.1
I    -6.6    1.8    5.7
H     0.2    8.1   -3.7
I    -6.3    6.1   -1.9
P    -3.9   -3.9    7.1
P     5.1    6.5   -3.9
I    -1.5    6.8   -5.8
H    -4.4    0.4   -8.0
H    -0.4    9.0   -1.5
H    -4.3   -4.8   -6.4
I     3.1    8.4    2.0
I     5.9   -6.8   -1.8
H     4.6    0.4   -8.0
H     4.6   -4.8   -6.4
N     0.6    9.0   -1.9
H    -7.8    3.0   -4.0
C    -8.4    3.9    0.6
C    -3.9    1.3   -8.3
H     4.1    6.5    5.2
H    -7.9    4.8    0.2
P    -8.4   -1.3   -3.8
H     8.5    3.8    0.2
H     4.5    2.2   -8.0
H    -4.5    2.2   -8.0
N    -3.9    6.5    5.6
I    -5.8   -7.2    2.0
I    -3.0    8.8   -1.8
N    -8.4    3.9    2.1
H     5.6    5.6    5.2
I     6.8    3.3    5.7
H    -7.9   -0.5    5.3
H    -2.9    1.3    9.0
P     5.1   -3.9    7.1
H     6.0   -3.8   -6.4
H    -3.4    7.3    5.2
P     9.6   -1.2    0.6
H    -4.9    6.5    5.2
C     0.6    9.1   -3.4
I    -0.3    1.6    9.5
H    -8.9    3.1    2.4
H    -0.0   -5.7   -7.9
H    -7.9   -2.2    5.3
I    -6.6   -4.5    5.6
C     5.1    1.3   -8.3
I     8.8   -3.9    2.0
P     0.6    9.1    3.8
H     9.1    3.1    2.4
H    -8.0   -5.6   -1.5
I     3.6   -7.2   -5.9
I     1.4    1.3   -9.8
N     5.1    6.5    5.6
I     8.0    0.6   -5.8
I     2.6   -9.4   -1.9
P    -3.9   -9.1    0.5
H    -4.3    0.4    9.0
H     1.6    9.2   -3.7
H     1.0    9.9   -1.5
H     4.6    0.4    9.0
I    -2.1   -1.9   -9.7
I    -9.1   -3.9    2.0
H     8.5    3.7   -4.0
H     6.1    1.4   -8.0
H     8.6   -1.3    5.3
H    -8.0    4.8   -4.0
H    -9.4    3.8    0.2
N    -3.9    1.3    9.3
N    -8.4   -1.3    5.6
C    -8.4    3.9   -4.3
H    -4.5    2.1    9.0
H    -4.4    5.6    7.4
H     4.5    2.1    9.0
I    -1.5   -3.6    9.5
H    -3.4   -8.2    5.2
H    -2.9    6.6    7.4
C     9.5    3.9    0.6
I     3.6   -2.0    9.5
H     1.6   -6.4   -7.9
H     4.6    5.6    7.4
H    -8.9    4.8    2.4
C    -3.9    6.5    7.1
P     9.6   -1.3   -3.8
I    -5.8    8.4    2.0
H    -7.4   -6.3   -3.7
H    -7.4    3.9   -6.2
I   -10.2    0.8    2.1
P     5.0   -9.1    0.5
H     9.0    4.8    2.4
N     9.5    3.9    2.1
I     2.4   -3.4   -9.7
H    -0.1    9.9   -3.7
H    -7.4   -1.3    7.5
C     0.6   -6.5   -8.3
H    10.1    3.1    0.2
H     5.6    7.3    5.2
I     7.7    7.0    2.1
P    -3.9   -9.1   -3.9
I    -1.5   -8.7   -5.8
N    -3.9    1.3   -9.8
I    10.4    1.0   -1.8
N     5.1    1.3    9.3
I     6.9   -5.9    5.6
H    -3.4    0.4  -10.1
I    -5.4   -7.2   -5.9
I     5.9    8.8   -1.8
H     1.0  -10.7    0.2
N    -8.4   -6.5   -1.9
I     1.4   -9.1    5.6
H     0.0   -5.7    9.2
I     3.0    4.2    9.5
H    -7.8   -7.3   -1.5
I     3.6    8.4   -5.9
C     5.1    6.5    7.1
H    -9.4   -1.3    5.3
H     0.1   -7.5   -7.9
I    -2.1    4.4   -9.7
H     6.0    1.3    9.0
H     8.6   -6.6   -1.5
H    -9.4    3.7   -4.0
H    -3.4    2.2  -10.1
N    -8.4    3.9   -5.8
H     4.1    1.3  -10.1
I     8.6   -3.6   -5.8
H     0.1  -10.8    2.4
P     5.1   -9.1   -3.9
I   -10.8   -1.7   -1.8
C    -8.4   -1.3    7.1
H    10.0    4.8    0.2
N     5.1    1.3   -9.8
I    -5.4   -2.0    9.5
C    -8.4   -6.5   -3.4
N     9.5   -1.3    5.6
C     9.5    3.9   -4.3
H    -8.8    3.0   -6.2
P    -3.9    6.5   -8.3
H     8.9   -5.7   -3.7
I    -0.9    5.8    9.5
H     5.6   -8.2    5.2
H     4.1   -9.1    5.2
P    -8.4   -6.5    3.8
H    -9.0   -5.7   -3.7
H    -3.7   10.7   -0.2
H     0.1    8.1   -7.9
H     1.6   -6.4    9.2
N    -3.9   -9.1    5.6
H    10.2    3.0   -4.0
I    -2.1    9.6    5.6
H    -4.9    1.3  -10.1
H    10.0   -0.5    5.3
H     4.5    7.4    7.4
H    -4.5    7.4    7.4
H     9.1    3.0   -6.2
I    -7.5    6.4    5.6
I    -2.4  -11.0   -1.8
H    -7.8    8.2   -1.5
H     1.0  -10.7   -4.0
H    10.5    3.9    2.4
I    -9.9    0.6   -5.8
I    -6.4   -9.4   -1.9
H    10.0   -5.6   -1.5
H    -9.4   -6.6   -1.5
H    -4.9   -9.1    5.2
H    10.0   -2.2    5.3
N     0.6   -6.5    9.5
I    -9.3   -3.6   -5.8
C    -3.9    1.3   10.8
H     5.5    0.4  -10.1
I    -5.4    8.4   -5.9
H     1.1   -5.7  -10.1
H     6.1    6.6    7.4
I     2.4    5.9   -9.7
P     5.1    6.5   -8.3
H    -3.3    0.4   11.1
I     7.7   -8.5    2.1
C     0.6  -11.6    0.6
H    -3.0   11.1    2.0
H     9.0   -0.5    7.5
I     7.5    6.8   -5.8
H    -9.0   -0.5    7.5
N     9.5   -6.5   -1.9
H    -0.1   -0.5   11.7
P    -8.4    3.9    7.2
H    -3.4   -9.9    5.2
H    -0.5  -11.7    0.2
I    11.1   -3.2   -1.8
N     0.6   -6.5   -9.8
H     9.9    4.8   -4.0
H     5.5    2.2  -10.1
N     5.1   -9.1    5.6
H    -8.8   -2.3    7.5
H     0.1   -7.4    9.2
I    -0.2   11.6    2.0
P    -8.4   -1.3   -8.2
N     0.6  -11.6    2.1
N     9.5    3.9   -5.8
H    -8.9    4.7   -6.2
H     1.6   -1.2   11.7
H     9.0    4.7   -6.2
H    -3.5    2.2   11.2
H     0.2   -2.3   11.7
H     5.3   10.7   -0.2
H     4.0    1.2   11.1
H     4.5   -8.2    7.4
H    -4.5   -8.2    7.4
H     1.6  -11.6    2.4
C     9.5   -1.3    7.1
H     9.1   -2.3    7.5
H    -2.9   -9.0    7.4
I    -6.0    4.2    9.5
C     5.1    1.3   10.8
I     6.8   -1.9   -9.7
H     4.2   11.1    2.0
C     9.5   -6.5   -3.4
H    -0.4   -6.5  -10.1
I    -3.1   -6.4   -9.7
H    -3.3   10.8   -4.2
I     4.1   -6.2    9.5
H    -8.8   -7.4   -3.7
C     0.6   -1.3   12.0
C    -3.9   -9.0    7.1
P     9.5   -6.5    3.8
H     1.6    9.1   -7.9
P     0.6    3.9   11.5
I    -6.6   -3.4   -9.7
P     0.6    3.9  -11.6
C     0.6    9.0   -8.3
H    -4.9    1.2   11.1
H    -4.8   11.1    2.0
N    -3.9   11.6    0.2
H     0.1    8.2    9.2
I    -4.8   -6.2    9.5
H    -7.4    9.2   -3.7
H     9.1   -7.4   -3.7
C    -3.9   11.6    1.7
I    -7.5    1.3   -9.8
I   -11.4    4.5   -1.8
I    12.2   -0.6    2.0
H   -12.3    0.5   -1.5
H    -0.5  -11.8   -4.0
C     0.6  -11.7   -4.3
N    -8.4    9.0   -1.9
H     8.6    9.0   -1.5
H     0.0  -10.9   -6.2
H     5.6    0.4   11.1
H     5.5   -9.9    5.2
H   -11.9    1.4   -3.7
H    -8.8    8.1   -3.7
C     5.1   -9.0    7.1
H     1.2  -12.5    0.2
H     1.1   -7.4  -10.1
P     9.5    3.9    7.2
H    10.1   -7.3   -1.5
H   -12.1   -3.3   -0.2
I     4.2  -11.7    2.1
H    -7.4   -6.4   -7.9
I   -10.3    7.0    2.1
I     2.2   12.3   -1.8
H     5.5    2.2   11.2
I     7.5   -3.6    9.5
H    -0.0    9.9   -7.9
H     4.2   11.9   -0.2
P     9.5   -1.3   -8.2
I     2.4   11.1    5.6
H    -3.2   12.3   -0.2
N     5.1   11.6    0.2
H     1.0   -5.5   11.4
H     0.1  -12.5    2.4
I     6.9    4.4   -9.7
H     5.9   11.1    2.0
H   -12.5    2.2   -1.6
C     5.1   11.6    1.7
H     9.1    8.1   -3.7
P    -3.9   -3.9   11.5
I    -4.8  -11.7    2.1
P    -3.9   -3.9  -11.5
C    -8.4    9.1   -3.4
