         400
 sphere cut out from bulk 
H     0.5    0.2   -0.2
C    -0.2    1.1    0.1
H    -1.2    0.9   -0.3
H    -0.2    1.3    1.1
N     0.3    2.3   -0.7
H    -0.9   -2.5    0.2
H     0.2    2.1   -1.7
H     1.3    2.5   -0.4
H    -0.3    3.1   -0.4
H     0.8   -3.1    0.3
I     2.9   -1.4   -0.3
C    -0.2   -3.3   -0.1
I    -3.4   -0.8    0.3
H    -0.3   -3.5   -1.1
I     1.5    0.8    3.5
I    -0.4    1.7   -4.1
N    -0.7   -4.5    0.6
H    -0.5   -4.4    1.7
I     3.7    3.0    0.2
P     4.4    0.3    2.0
I    -2.0   -2.9   -3.5
H    -0.2    4.2    2.8
H    -1.6   -4.8    0.4
H     2.4    2.6   -3.7
I    -1.9    4.8    0.3
H     0.7    3.4    4.0
H    -0.0   -5.3    0.4
I     0.0   -3.9    4.0
H     4.2    3.0   -2.2
C     0.1    4.2    3.8
H    -1.7    3.3    4.4
P    -4.8   -2.5   -2.0
P     1.6   -1.6    5.7
P    -2.1   -0.6   -5.7
C     3.2    3.4   -4.0
I    -4.2    2.5    3.6
H     4.7    2.0   -3.5
P    -5.9    0.3    2.0
N     4.4    3.0   -3.3
N    -1.1    4.1    4.7
P     5.5   -2.5   -2.0
H     2.9    4.4   -3.7
I     4.5   -2.0    4.2
I    -5.0   -0.2   -4.2
H    -2.8   -4.7    3.6
H     0.6    5.1    4.1
I    -4.1   -5.3   -0.2
H    -1.2   -5.1   -4.3
I     5.4   -0.2   -4.2
H     0.3   -6.2   -2.9
H    -5.6    2.0   -3.5
H     3.4    3.3   -5.1
H    -0.8    4.0    5.7
H    -1.7    4.9    4.6
I     6.9   -0.8    0.3
H     1.1   -5.5   -4.3
I     0.5    6.1   -3.6
H    -6.1    3.0   -2.2
I     4.0   -4.7   -3.6
I     1.6   -7.0   -0.4
H    -5.1    3.7   -3.5
I    -6.6    3.0    0.2
H     5.2    3.7   -3.5
H    -4.7   -5.2    2.2
P    -4.8    5.2    1.8
N    -5.9    3.0   -3.3
P    -1.1    4.3   -5.9
C     0.4   -6.3   -3.9
I    -5.8   -2.0    4.2
H    -5.1   -4.2    3.5
H     5.2   -4.2    3.5
I     6.1    2.5    3.6
I    -7.4   -1.4   -0.3
I    -0.9   -0.6    7.5
C    -3.5   -5.4    4.0
H     3.7    0.4   -6.6
N    -0.9   -6.0   -4.5
I     0.3   -1.6   -7.5
I    -3.5    5.4   -4.1
P    -2.0    7.1   -1.9
N    -4.8   -5.1    3.2
P     5.5    5.2    1.8
I     3.0    6.4    3.5
H     5.7   -5.2    2.2
H    -4.7    2.4    6.0
H    -3.2   -6.4    3.7
H    -1.6   -6.7   -4.2
I     6.2   -5.3   -0.2
N     5.5   -5.1    3.2
H    -3.7   -5.3    5.0
H    -3.3    1.0    7.5
H    -0.8   -6.1   -5.6
I    -2.8    2.1   -7.5
H     4.8   -5.8    3.5
H     1.9    0.1   -8.2
H     0.8   -7.3   -4.2
H    -2.8    2.7    7.5
H     2.6   -3.4   -7.4
H    -4.5   -2.8    6.7
H     5.6    2.4    6.0
I     3.1    0.1    8.0
I     1.8    3.9   -7.5
C     3.9    0.3   -7.7
H     2.4    1.7   -8.2
I    -6.3   -4.7   -3.6
I    -3.2    6.9    4.2
H     4.2   -4.7   -6.0
H    -5.5   -5.8    3.5
P     0.7   -6.5    5.8
H    -2.5   -2.3    8.1
C    -3.6    2.0    7.8
C    -7.1    3.4   -4.0
I     0.0    3.9    8.0
H     4.7    1.8    7.3
N     2.7    0.7   -8.4
P     4.5   -7.4   -1.9
N    -4.8    2.4    7.1
I    -0.7   -8.2    3.5
I     2.3   -4.3    7.5
H     0.6    8.1    3.7
I    -4.9    7.6   -0.4
H     4.2   -0.7   -8.0
I    -3.7   -2.4   -8.0
H     2.1    7.8   -4.2
H    -7.9    2.6   -3.7
H     9.1    0.9   -0.3
H    -6.9    3.3   -5.1
H     2.2   -5.2   -7.3
N     5.5    2.4    7.1
I     5.4    7.6   -0.4
I    -0.3    9.3   -0.2
H     5.8   -2.8    6.7
H     4.7    1.0   -8.0
C     2.9   -4.4   -7.7
I     3.3   -7.6    4.2
H    -6.6    0.4   -6.6
H    -9.0    2.5   -0.4
H    -5.6    1.8    7.3
H    -7.4    4.4   -3.7
C    -4.6   -2.7    7.8
I    -8.8    0.8    3.5
H    -2.9   -4.0    8.1
N    -3.3   -3.0    8.4
N     4.3   -4.7   -7.1
I     8.4   -2.9   -3.5
C     6.8   -5.4    4.0
H     4.5    7.3   -4.2
H    -1.8    8.7    3.5
H    -5.1    3.4    7.3
P    -5.8   -7.4   -1.9
H     7.5   -4.7    3.6
I     6.8    5.4   -4.1
H     5.2    3.4    7.3
H    -4.9   -1.7    8.1
H    -0.9    9.4    2.2
I     8.4    4.8    0.3
P     1.7   -9.4    1.8
H     4.1    8.3   -2.9
I    -3.2   -8.4   -3.6
H     9.4   -2.5    0.2
H    -5.6    1.0   -8.0
H     5.0   -4.0   -7.4
H    -6.1   -4.7   -6.0
I    -2.2   -6.1    7.4
H    -9.9    0.2   -0.2
H    -3.8    2.1    8.9
H     6.6   -5.3    5.0
P     0.7    1.2    9.8
H     2.8    0.7   -9.5
H     5.4   -1.7    8.1
H     8.7   -4.8    0.4
H    -5.3   -4.0   -7.4
H     3.7    9.2    0.4
C     0.2    9.1    4.0
H     2.1    9.8    0.4
C    -6.4    0.3   -7.7
N    -1.0    9.4    3.2
H    -9.5   -3.1    0.3
P     8.2   -0.6   -5.7
I    -0.5   -6.1   -8.0
C     5.7   -2.7    7.8
C     4.2    8.3   -3.9
N     2.9    8.5   -4.5
H    -6.1   -0.7   -8.0
H     5.0   -3.4    8.2
C    10.1    1.1    0.1
H     8.6    3.3    4.4
H    -5.8    7.3   -4.2
I    -7.3    6.4    3.5
H     7.1   -6.4    3.7
N   -10.0    2.3   -0.7
H     3.0   -4.5   -8.8
H     7.0    1.0    7.5
H    10.2    1.3    1.1
H    -5.3   -3.4    8.2
H     4.6   -5.7   -7.3
P    -1.2   -3.3   -9.8
N    -6.1   -4.7   -7.1
H    -3.3   -3.0    9.5
H   -10.1    2.1   -1.7
H    10.0    3.1   -0.4
H     0.0    9.2    5.0
C     6.7    2.0    7.8
N     3.1   10.0    0.6
I     3.0   -9.2   -4.1
P    -8.7   -1.6    5.7
C   -10.5    1.1    0.1
I    -1.2    6.7   -8.1
H     2.9    8.5   -5.6
H     1.0    9.9    3.6
H   -10.5    1.3    1.1
C    10.1   -3.3   -0.1
I     6.6   -2.4   -8.0
H     2.5    9.5   -4.3
H    -3.6    2.2   -9.8
N     9.7   -4.5    0.6
H    10.1   -3.5   -1.1
H    -3.2   -9.4    4.1
I     7.1    6.9    4.2
I    -7.2    0.1    8.0
H    10.8    0.2   -0.2
H    -6.2    8.3   -2.9
H     3.2   10.2    1.7
I    -2.6    9.8   -3.6
I     4.7   -9.8    0.3
I     4.6    5.6    8.0
I     9.9    1.7   -4.1
H     9.8   -4.4    1.7
H    10.5    2.1   -1.7
I     7.5    2.1   -7.5
P     4.4    8.0    5.8
N    10.6    2.3   -0.7
H    -0.9  -10.2   -3.7
H    -9.6    3.4    4.0
H    -5.7   -5.7   -7.3
H     8.6    4.9    4.6
H     2.0   -4.3    9.9
H     7.5    2.7    7.5
C    -6.1    8.3   -3.9
H    -1.4   10.4    3.5
C   -10.5   -3.3   -0.1
H   -10.6    3.1   -0.4
N     9.2    4.1    4.7
P     8.3    7.1   -1.9
H     4.9    9.0   -4.3
I    -8.7   -7.0   -0.4
H    -7.7   -3.4   -7.4
H   -10.6   -3.5   -1.1
I    -7.0   -7.6    4.2
H     6.5    2.1    8.9
H     9.1   -5.1   -4.3
H    10.1    4.2    2.8
I    -5.7   -9.8    0.3
I     1.6    8.4    7.4
H    -6.6    9.2    0.4
I    -5.7    5.6    8.0
N    -7.6    0.7   -8.4
H    -5.4    9.0   -4.3
N     7.0   -3.0    8.4
H    -4.0  -10.3    2.8
P     1.7    6.1    9.6
H     7.8   -2.3    8.1
H    -7.9    1.7   -8.2
H   -11.2   -2.5    0.2
H     1.4  -10.9   -3.5
P    -5.9    8.0    5.8
I    -0.0  -11.5    0.2
H    11.1   -3.1    0.3
C    -7.4   -4.4   -7.7
H    -9.2   -5.5   -4.3
H   -11.5    0.9   -0.3
I     7.1   -8.4   -3.6
I    -2.2    1.6   11.3
H    10.3   -5.3    0.4
C    -3.7  -10.3    3.8
I   -10.7    1.7   -4.1
H   -10.3   -5.3    0.4
P     1.7    6.3   -9.7
H     7.4   -4.0    8.1
H     3.5   11.1   -1.1
I   -10.3   -3.9    4.0
H    -2.0    8.9   -7.3
C   -10.2    4.2    3.8
H   -10.6    4.2    2.8
H     4.8   -9.6    4.6
H    -8.4    0.1   -8.2
H     0.5  -11.5   -2.2
N    -3.9    2.3  -10.8
H     9.5    4.0    5.7
H    -9.7    5.1    4.1
I    10.4   -3.9    4.0
P     9.2    4.3   -5.9
H    -2.4    9.8   -6.0
H    -2.1    1.6  -11.5
C     3.5   11.3   -0.1
H     8.7   -6.7   -4.2
H     1.5   -3.4   11.2
I    -8.1   -4.3    7.5
H   -10.9   -4.4    1.7
C    10.4    4.2    3.8
H    11.6    2.5   -0.4
N   -11.0   -4.5    0.6
N     1.9   -4.3   10.9
C    -0.6  -11.2   -4.0
I     1.7   -3.7  -11.2
H    -5.5   -9.6    4.6
I    -8.5    3.9   -7.5
N     0.7  -11.5   -3.3
I     0.8   -8.9    8.0
I     9.4   -0.6    7.5
I     3.8   10.7    4.0
I     0.8   -1.2   12.0
H    -8.1   -5.2   -7.3
H    -8.2    7.8   -4.2
H    -7.5    0.7   -9.5
N     9.4   -6.0   -4.5
H    -4.5    1.5  -11.1
H     6.7    2.2   -9.8
I     3.2    8.5   -8.0
H    -2.2    3.4  -11.4
H   -10.0   -6.2   -2.9
I    -1.3   -1.0  -12.0
I    -9.8    6.1   -3.6
H     7.0   -3.0    9.5
I     2.4    3.4   11.4
H    -4.1  -11.5   -0.4
H    -4.5    3.2  -10.9
N    -7.5    8.5   -4.5
H    11.0    3.4    4.0
H    -7.3   -4.5   -8.8
C    -2.7    2.5  -11.7
H    -3.0  -11.2    4.0
H    -4.1    5.0   10.4
I     1.8   11.6   -3.5
P    -1.1   12.1   -2.0
H    -2.5  -12.1   -0.4
N    -2.3    9.8   -7.1
I     3.3    0.8  -11.9
I    -5.0   -7.9   -8.1
H     4.5   11.5    0.3
C    -9.9   -6.3   -3.9
N    -7.2   10.0    0.6
H    -0.3  -11.3   -5.1
I    11.8    0.8    3.5
H     1.2   -5.0   11.2
H     2.8   12.1    0.2
H     6.3  -10.3    2.8
I    -7.3   -9.2   -4.1
H     3.9   -3.8   11.2
N    -4.9  -10.5    4.7
I     5.3   -7.9   -8.1
H     7.1   -9.4    4.1
H    -7.1   10.2    1.7
I   -10.0   -1.6   -7.5
H     9.5   -6.1   -5.6
H    -1.4  -11.9   -3.7
H    -7.4    8.5   -5.6
I     8.1   -6.1    7.4
H     5.8    1.5  -11.1
H    10.6   -6.2   -2.9
H    -4.4    9.4   -7.3
N     5.4  -10.5    4.7
H     8.5    8.7    3.5
H    10.9    5.1    4.1
H     5.8    3.2  -10.9
H    -9.6   -7.3   -4.2
I    -3.6   -3.0   11.9
H    -8.2    9.8    0.4
P    -4.8  -10.2   -5.9
I     2.3  -12.0    3.6
N    -3.4  -12.3   -0.7
N     6.4    2.3  -10.8
C     3.2   -4.6   11.5
P    -8.6   -9.4    1.8
C     6.6  -10.3    3.8
H    -4.6  -10.6    5.7
H    -5.8   11.5    0.3
I     0.2    4.6  -12.0
H    -2.8    3.8   12.0
H   -11.9   -4.8    0.4
P    -2.1   -8.3   -9.7
H    -1.6   10.5   -7.4
I    10.8    6.1   -3.6
P    -2.0   -8.5    9.6
H    -7.8    9.5   -4.3
I     7.7    9.8   -3.6
P     5.5  -10.2   -5.9
P    -9.6   -6.5    5.8
N   -11.4    4.1    4.7
H     1.0  -12.5   -3.5
H     4.8  -11.3    4.4
H     3.6   -5.6   11.2
H    -3.6  -12.4   -1.7
I    -2.8   -5.6  -11.5
C    10.7   -6.3   -3.9
H    -6.8   11.1   -1.1
H     6.3  -11.5   -0.4
I     9.6   -8.2    3.5
I   -12.3   -2.9   -3.5
H   -11.1    4.0    5.7
