         400
 sphere cut out from bulk 
H     1.2    1.2   -0.5
I    -1.4    1.6   -0.6
H     2.4    0.2    0.2
N     2.2    1.2   -0.1
H    -1.1   -1.2    2.2
H     2.1    1.7    0.9
I     1.1   -1.8   -2.3
H    -2.4   -2.5    0.5
P    -1.6   -0.2   -3.3
C    -1.9   -1.9    2.5
C     3.1    1.8   -1.0
N    -2.1   -2.9    1.4
H    -1.2   -3.5    1.2
I     2.9   -1.9    1.8
H     3.2    1.3   -1.9
I     1.1    2.1    3.2
H    -2.8   -1.4    2.7
H     2.8    2.9   -1.2
P    -1.6    3.5    2.0
H    -1.5   -2.5    3.4
I    -3.5   -2.3   -1.8
H     4.1    1.8   -0.5
H    -2.8   -3.7    1.7
P     2.9   -3.9   -0.7
I    -3.4    1.4    3.6
H    -4.8    1.8   -0.5
I     0.3    1.9   -4.8
I     0.3   -5.4    0.5
H    -1.4    4.9   -1.9
P     2.9   -0.2    4.6
H     2.4   -2.3   -4.5
I     0.3    5.7    0.5
H    -2.8    4.2   -2.8
H    -0.8    4.1   -4.1
I     0.3   -1.7    5.6
C    -2.0    5.0   -2.7
H    -1.9    1.5    5.6
C    -5.8    1.8   -1.0
I    -4.1    1.4   -4.4
H    -2.5   -5.0   -2.6
H    -5.8    1.3   -1.9
I     5.5   -2.3   -1.8
H    -0.8    0.4    6.3
I    -1.7   -2.0   -5.9
H    -6.5    0.2    0.2
N    -1.3    5.0   -4.0
H     1.4   -5.0    4.0
H     2.4    4.0    4.6
H    -1.3   -6.2   -1.9
H     2.9   -0.4   -5.9
I    -6.1   -1.9    1.8
N     2.9   -2.5   -5.4
I    -4.2    5.1    0.8
H    -0.5   -5.3   -4.0
I     4.8    1.4   -4.4
N    -1.3    1.3    6.5
I     5.5    1.4    3.6
H     1.4   -1.3   -6.5
H    -0.6    2.1    6.4
H     3.0   -5.2    3.2
H     2.9   -4.1    4.6
I     2.8    5.3   -3.2
H     6.1   -1.4    2.7
H    -6.1    2.9   -1.2
N    -6.8    1.2   -0.1
C    -2.0   -6.0   -2.7
C     2.5   -1.4   -6.3
C     2.5   -5.0    4.1
H    -2.5    6.0   -2.6
H     3.9   -2.6   -5.3
H     6.6   -2.5    0.5
H    -0.5    5.8   -4.0
I     4.8    5.1    0.8
H    -6.9    1.7    0.9
H     2.5   -3.4   -5.8
I    -1.7    5.4    4.5
I     2.9   -5.8   -3.2
H     2.9    5.8    3.2
I    -4.1   -5.9    0.8
P    -6.1   -3.9   -0.7
H    -1.9    5.1   -4.8
H    -1.5    1.2   -7.1
N    -1.2   -6.0   -4.0
H     6.2   -3.7    1.7
H     1.4    6.1    4.0
P     3.0    3.5   -5.9
I    -1.7   -5.7    4.5
N     2.8    4.9    5.0
P    -6.0   -0.2    4.6
N     6.9   -2.9    1.4
I    -4.1   -2.3    6.1
C     2.4    6.0    4.1
P     2.8    7.1   -0.7
I     4.8   -5.9    0.8
I     7.5    1.6   -0.6
C     7.1   -1.9    2.5
H    -5.1   -2.6   -5.3
H    -1.2    7.6    1.2
H    -7.7    1.2   -0.5
H    -2.7   -6.8   -2.8
H    -1.8   -5.9   -4.8
I     2.8    1.6    7.2
H     6.2    4.2   -2.8
P    -1.6   -7.6    2.0
H     3.8    4.8    5.2
H     3.0   -1.5   -7.3
I     4.8   -2.3    6.1
P     7.4   -0.2   -3.3
H    -2.8    7.4    1.7
H    -0.7   -7.0   -4.1
C    -2.1    1.4    7.7
H     2.3    5.0    6.0
H    -2.8    0.6    7.7
H     7.8   -1.2    2.2
H    -6.5   -2.3   -4.5
P    -1.6   -3.9    7.2
P     7.3    3.5    2.0
C    -1.8    1.7   -8.0
I    -7.9   -1.8   -2.3
H    -6.0   -0.4   -5.9
N     2.8   -6.2    5.0
N    -2.1    8.1    1.4
H     7.4   -2.5    3.4
N    -6.1   -2.5   -5.4
H    -6.0   -5.2    3.2
H    -2.6    2.3    7.8
H    -2.8    2.2   -7.8
H     7.8   -3.5    1.2
H     6.5   -5.0   -2.6
H    -6.1   -4.1    4.6
I    -6.1    5.3   -3.2
H    -1.1    2.5   -8.3
H    -5.2    4.8    5.2
I    -7.9    2.1    3.2
H     2.9   -8.2   -1.2
H    -1.4    1.2    8.6
H     2.8    6.9    4.6
H     2.5   -7.1    4.6
H     2.4   -6.0    6.0
H    -2.4    8.5    0.5
H    -6.0    5.8    3.2
H    -6.5    4.0    4.6
I    -6.0   -5.8   -3.2
C     6.9    5.0   -2.7
H     3.8   -6.3    5.2
I     1.2   -5.3   -7.3
P    -6.0    3.5   -5.9
C    -6.4   -1.4   -6.3
H     7.0    1.5    5.6
C    -6.4   -5.0    4.1
H     6.4    6.0   -2.6
I    -3.4    5.1   -6.9
H    -2.7    0.0   -8.8
H     7.6    4.9   -1.9
I     2.9    1.8   -8.6
N    -2.0    0.7   -9.0
H    -1.2    0.2   -9.3
H    -6.5   -3.4   -5.8
N    -6.2    4.9    5.0
I     1.1    5.8   -7.3
H    -1.6    8.6    3.4
H     3.1   -2.4    8.6
P    -6.1    7.1   -0.7
P    -1.5   -3.9   -8.5
H    -5.9   -1.5   -7.3
I    -1.3   -9.4   -0.6
I    -3.5    8.7   -1.8
I     1.0    9.2   -2.3
I     1.1   -8.9    3.2
C     6.9   -6.0   -2.7
I    -6.1    1.6    7.2
H    -5.1   -6.3    5.2
I     7.3   -2.0   -5.9
H     6.2   -6.8   -2.8
C    -1.9    9.1    2.5
H     2.1   -9.4    0.9
I    -3.3   -6.0   -6.9
H     6.1    7.4    1.7
H     2.8   -0.8    9.3
C    -6.5    6.0    4.1
I     2.8    9.2    1.8
C     3.2   -9.2   -1.0
H     6.1    0.6    7.7
I     1.0   -5.5    8.1
H    -7.5   -5.0    4.0
I     1.0    5.5    8.1
H     2.4    7.7   -5.8
H     7.0    5.1   -4.8
H     1.3   -9.9   -0.5
H    -7.5   -1.3   -6.5
H     7.6   -6.2   -1.9
N     7.7    5.0   -4.0
H     8.2    4.1   -4.1
P     3.0   -7.6   -5.9
N    -6.1   -6.2    5.0
I     7.2    5.4    4.5
I    -8.6    1.9   -4.8
H     2.3    8.7   -4.5
I     0.4   -1.7   -9.9
N     7.6    1.3    6.5
N     2.2   -9.9   -0.1
H    -1.2    9.8    2.2
H     4.2   -9.2   -0.5
I    -1.4   -2.1    9.8
C     3.1   -1.8    9.5
I    -8.6   -5.4    0.5
H     6.2    2.2   -7.8
I     5.6    5.1   -6.9
H    10.2    1.2   -0.5
H    -6.6    5.0    6.0
P    -1.7    7.1    7.2
H    -6.1   -8.2   -1.2
I     7.3   -5.7    4.5
H    -2.4    1.2   -9.9
H     8.1    0.4    6.3
H    -6.1    6.9    4.6
I     0.4   -9.1   -4.8
H     7.4    1.2   -7.1
H   -10.0   -1.2    2.2
H     6.4    2.3    7.8
H     1.2   -2.5   10.0
I    -8.7    5.7    0.5
H    -2.9    9.6    2.7
H    -4.8   -9.2   -0.5
H     7.1   -5.9   -4.8
I    10.0   -1.8   -2.3
I     5.4    8.7   -1.8
C     6.9    1.4    7.7
I    -8.6   -1.7    5.6
H     3.2   -9.8   -1.9
I   -10.3    1.6   -0.6
H    -7.6    6.1    4.0
N     2.8    8.6   -5.4
N     7.7   -6.0   -4.0
H    -5.8   -2.4    8.6
I     9.3    1.9   -4.8
H    -6.5   -7.1    4.6
I    -3.5    5.0    8.7
I    -6.0    1.8   -8.6
H     3.8    8.5   -5.3
N     6.8    8.1    1.4
I    -4.1   -2.3   -9.6
P     2.8    3.5    9.8
I     9.3   -5.4    0.5
H    -6.6   -6.0    6.0
I     5.6   -6.0   -6.9
I    10.0    2.1    3.2
H     6.5    8.5    0.5
H     8.5   -5.3   -4.0
P     7.4   -7.6    2.0
H     6.2    0.0   -8.8
H     8.4    2.1    6.4
H   -10.1   -3.5    1.2
C     7.1    1.7   -8.0
I     9.2    5.7    0.5
I    -3.3   -9.7    3.6
H     7.7    7.6    1.2
I     0.2    9.3    5.6
C    -5.7   -9.2   -1.0
N     2.1   -2.5   10.4
H     4.1   -1.9   10.0
I    -1.7    9.0   -5.9
H     8.4    5.8   -4.0
I     9.2   -1.7    5.6
P     7.3   -3.9    7.2
I     4.9   -2.3   -9.6
P   -10.5   -0.2   -3.3
H    -0.5   -9.0    6.4
H     2.5  -10.8    0.2
I    -3.5   -6.0    8.7
I    -6.1    9.2    1.8
N    11.1    1.2   -0.1
I     0.2    2.0   11.0
H    -6.2   -0.8    9.3
H    11.0    1.7    0.9
H     2.1    5.4   -9.6
P    -1.6    7.2   -8.5
H    -5.1    8.5   -5.3
H    -4.8   -1.9   10.0
C   -10.8   -1.9    2.5
P    -5.9   -7.6   -5.9
H    -1.9   -9.6    5.6
H     2.5    3.9  -10.3
C    -5.8   -1.8    9.5
P   -10.6    3.5    2.0
H   -10.5   -2.5    3.4
H    -9.7    4.1   -4.1
I    -4.0   -9.7   -4.4
H     2.2   -5.7   -9.6
H    11.4    0.2    0.2
N     6.9    0.7   -9.0
I     5.4    5.0    8.7
P    -1.6   10.8   -3.3
I    -4.2    8.8    6.1
H     2.4   -3.5   10.6
N   -11.0   -2.9    1.4
H     7.6    1.2    8.6
H    -5.7   -9.8   -1.9
H     2.4   11.3    0.2
H     8.2   -7.0   -4.1
H    -9.4   -5.3   -4.0
P     2.9   -0.2  -11.2
H   -10.3    4.9   -1.9
H    -6.8   -9.4    0.9
H   -11.3   -2.5    0.5
H    -6.5    7.7   -5.8
H    -9.8    0.4    6.3
I     4.8    8.8    6.1
H    -9.5    2.1    6.4
H     2.1   -2.0   11.3
H     6.1    9.6    2.7
H     7.9    2.5   -8.3
I     4.9   -9.7   -4.4
N    -1.2   -9.7    6.5
I     5.6   -9.7    3.6
H     1.4    9.7   -6.5
C     7.0    9.1    2.5
H     7.3    8.6    3.4
N     2.2    4.9  -10.5
H    -9.5    5.8   -4.0
H    -6.6    8.7   -4.5
C     2.5    9.7   -6.3
N    -6.1    8.6   -5.4
P    -1.5  -11.3   -3.3
I    -7.8   -5.3   -7.3
I     5.5   -6.0    8.7
P     7.4   -3.9   -8.5
N    -6.7   -9.9   -0.1
H    -1.0   -8.6   -8.3
H    -2.5   -8.7    7.8
H     6.6    1.2   -9.9
H     1.2    4.8  -10.9
P    -6.2    3.5    9.8
N   -10.2    5.0   -4.0
H    -2.7   -8.8   -7.8
H     7.8    0.2   -9.3
H   -10.2   -6.2   -1.9
I    11.8   -1.9    1.8
P     2.9   10.8    4.6
I    -4.2    1.4   11.3
I     7.6   -9.4   -0.6
I    -7.8    5.8   -7.3
H   -11.8   -1.4    2.7
H    11.8    2.9   -1.2
H    10.4   -5.0    4.0
N   -10.2    1.3    6.5
H    -1.5   -9.8   -7.1
I     2.9   -9.5    7.2
C    12.1    1.8   -1.0
H    -2.5    4.9   11.0
H     1.2   12.2   -0.5
H    10.4   -1.3   -6.5
I    -7.8   -8.9    3.2
I   -10.6   -2.0   -5.9
H    12.1    1.3   -1.9
H   -10.9    1.5    5.6
I     4.8    1.4   11.3
H     2.9    9.5   -7.3
I    -1.4    5.3  -11.1
H    -1.3    3.9   11.7
H   -11.7   -3.7    1.7
C    -1.8   -9.3   -8.0
C   -11.0    5.0   -2.7
H    -0.8  -10.6    6.3
I    -7.9    9.2   -2.3
N     2.3   -6.2  -10.5
N     2.1   12.2   -0.1
H    11.3   -2.3   -4.5
P    11.8   -3.9   -0.7
P     7.3    7.1    7.2
N   -10.2   -6.0   -4.0
H     2.9   10.6   -5.9
H    -1.0  -12.3    2.2
H    -7.7   -9.9   -0.5
P     3.0  -11.3    4.6
H     3.1    8.6    8.6
I     7.5   -2.1    9.8
P    -1.7   -0.2   12.4
C    -2.0   -9.7    7.7
I    -1.3   -5.8  -11.1
H    10.3    6.1    4.0
H    -9.7   -7.0   -4.1
I    -7.9   -5.5    8.1
H    -6.5  -10.8    0.2
H     1.3   -6.2  -10.9
I    -8.0    5.5    8.1
H   -10.5    1.2   -7.1
H    -1.3   -2.5  -12.4
P     2.8   -7.6    9.8
N    -6.8   -2.5   10.4
P    -6.1   -0.2  -11.2
H     7.8    9.8    2.2
P    11.9   -0.2    4.6
I   -12.4   -2.3   -1.8
H   -10.2    7.6    1.2
I    -1.4   12.7   -0.6
H   -11.4   -5.0   -2.6
I    -3.4    1.4  -12.2
C   -10.9   -6.0   -2.7
H    -6.5    3.9  -10.3
