         400
 sphere cut out from bulk 
P     0.3    0.1   -0.0
I    -2.4   -0.4   -1.8
I    -1.6    0.5    2.6
I     0.4   -3.1    0.6
I     0.1    3.2   -0.6
I     2.3   -0.4   -2.5
I     3.0    0.4    1.8
H    -3.5    1.7   -0.5
H     0.6   -2.6    3.1
H    -3.6   -2.0   -0.2
H    -0.5   -1.6    3.9
H    -0.7   -3.2   -3.0
H     0.4   -2.1   -3.8
H     4.0   -1.7    0.5
H    -0.4    3.2   -3.2
H     1.2    3.3    3.0
H     4.2    2.1    0.2
N     0.2   -2.4    4.0
H    -0.8    2.4    4.1
C    -0.4   -2.8   -3.9
N    -4.2    2.5   -0.4
H    -3.3    3.4    1.3
H    -2.8    4.0   -0.4
H     1.6    2.2   -4.2
N    -4.4   -2.4    0.3
H    -4.1   -2.7    1.3
H     1.0   -2.0    4.6
C    -3.7    3.7    0.3
H    -0.8    2.3   -4.6
H     3.4   -4.0    0.3
H    -1.2   -2.4   -4.5
N    -0.3    3.1   -4.2
H     3.9   -3.4   -1.3
H     1.6    2.4    4.5
C     1.1    3.3    4.1
N     4.8   -2.4    0.3
H    -5.0    2.1    0.2
H    -5.1   -1.7    0.5
H     4.6    2.7   -1.3
H    -4.6    2.7   -1.3
N     4.9    2.5   -0.4
N    -0.3    3.2    4.5
C     4.2   -3.6   -0.3
C     1.1    3.1   -4.6
H    -1.2   -3.9    4.1
H    -0.8    4.1    4.1
H     5.5   -2.0   -0.2
H     5.1   -2.7    1.3
C    -0.4   -3.6    4.7
H     5.6    1.7   -0.5
H     1.6    4.0   -4.2
H    -4.2   -4.4   -0.4
C    -4.9   -3.6   -0.3
N     0.2   -4.0   -4.7
H     0.9   -4.4   -4.2
H    -0.8    4.0   -4.7
P    -4.3    0.1    4.5
P    -4.4   -0.1   -4.5
P     0.3   -6.3    0.0
H    -4.4    4.4    0.3
H     1.6    4.2    4.5
P     0.3    6.4    0.0
H    -5.3   -3.4   -1.3
I    -4.1   -3.1    3.8
H    -0.4    3.2    5.5
I    -1.6    0.4   -6.2
H     0.4   -4.3    4.8
I    -6.2    0.4    1.8
H     4.7    4.4    0.3
P     4.8   -0.1   -4.5
H    -0.7   -3.3    5.7
I    -4.3    3.1   -3.8
H     1.2    3.1   -5.7
I    -2.3   -5.9   -1.9
P     4.9    0.1    4.5
I     2.2   -0.4    6.2
C     5.5    3.7    0.3
I    -1.7    5.9    2.6
H     5.0   -4.4   -0.4
H     0.5   -3.7   -5.6
H    -0.6   -4.7   -4.8
I     2.3   -5.9   -2.6
I     2.9    5.9    1.9
H     5.8    3.4    1.3
I     4.8    3.1   -3.8
I     6.8   -0.4   -1.8
I     5.0   -3.1    3.8
H    -5.8   -4.0    0.3
I    -6.8   -0.4   -2.5
I    -4.1   -3.2   -5.1
I    -2.3   -0.4    7.0
I    -2.3    6.7   -1.9
I    -1.7   -6.7    2.6
I    -4.4    3.2    5.1
H     6.3    4.0   -0.4
I     2.8   -6.7    1.9
I     2.3    6.7   -2.6
I     2.9    0.5   -7.0
I     4.8    3.2    5.1
I     5.0   -3.2   -5.1
I     7.5    0.5    2.6
I    -1.6    5.8   -6.2
I     0.2    3.2    8.1
H    -3.4    3.1   -7.4
I     0.3   -3.2   -8.1
P     0.3   -0.1   -8.8
P    -4.4   -6.2    4.4
P     0.3    0.0    8.8
P    -4.3    6.3   -4.4
P    -8.8    0.1   -0.0
I    -6.3    5.9    1.9
P    -4.3   -6.3   -4.4
I     2.3   -5.9    6.3
P    -4.3    6.4    4.4
H     3.9   -3.1    7.4
H    -7.6    2.2   -4.2
P     4.8   -6.2    4.4
H    -2.9   -8.6   -0.4
H    -7.5    2.4    4.5
H    -3.7   -3.2   -7.7
P     4.9    6.3   -4.4
P     4.8   -6.3   -4.4
H    -8.0    3.3    3.0
P     4.8    6.4    4.4
H    -4.1    8.2   -0.4
H     1.0    8.2   -4.2
I     6.9   -5.9   -1.9
H     3.4    8.6    0.3
I    -8.7   -3.1    0.6
H    -0.6    7.9   -4.8
H     4.2    3.3    7.6
I    -6.9   -0.4    6.2
H    -4.5   -8.2    0.3
H    -3.3   -2.3    8.5
I    -1.6   -6.8   -6.2
I    -2.4   -5.8    7.0
I    -6.2    0.5   -7.0
I    -6.3   -6.7    1.9
H    -3.0    2.3    8.6
I    -6.9   -5.9   -2.6
H     4.7   -8.2    0.3
H     7.9   -2.4   -4.5
P     9.5    0.1   -0.0
H     8.4   -3.2   -3.0
I     2.9    5.8   -6.9
I     0.1   -9.5   -0.6
H    -8.6   -2.6    3.1
H    -0.8   -8.6    4.1
H    -7.5    4.0   -4.2
I     2.3    6.8    6.3
C    -8.0    3.3    4.1
I     0.5    9.5    0.6
H    -5.3   -3.1    7.4
H    -8.2   -2.0    4.6
H     0.4    8.3    4.8
I    -9.0    3.2   -0.6
H     3.8    2.3   -8.5
H     8.7   -1.6    3.9
H     3.5   -2.3   -8.7
H    -4.9    3.3    7.6
H     8.4    2.4    4.1
H     5.0    8.2   -0.4
H    -3.0    2.2   -8.9
C    -3.7   -8.9    0.3
H    -1.2    8.7    4.1
C    -3.4    3.1   -8.5
H     1.6   -8.4    4.5
H    -7.6    4.2    4.5
H     1.6   -8.6   -4.2
I     7.5    0.4   -6.2
C    -8.0    3.1   -4.6
H     8.0   -3.9    4.1
I     6.8   -0.4    7.0
H    -8.7   -2.1   -3.8
H     3.5   -2.2    8.9
I     9.3    3.2   -0.6
N     0.2    8.6   -4.7
I     6.9    6.7   -1.9
H     8.4    2.3   -4.6
H     8.8    3.2   -3.2
C     4.0   -3.1    8.5
I     7.5    5.9    2.6
H     1.2   -9.3    3.0
H    -3.3   -9.2    1.3
H    -0.8   -8.7   -4.7
H     5.8    3.1   -7.4
H    -3.3   -4.0    8.5
I     0.3   -3.1    9.4
C     4.2    9.0   -0.3
H    -0.7    9.5   -3.0
H    -3.3   -2.4   -9.1
H     5.5   -3.2   -7.7
I    -6.9    6.7   -2.6
I     0.2    3.1   -9.5
I    -2.3    6.8    7.0
N    -3.8   -3.2   -8.7
H    -0.4   -9.5   -3.2
C     8.8   -2.8   -3.9
H    -2.9    4.1    8.7
H     3.8    2.4    9.0
N    -8.9   -2.4    4.0
I     9.6   -3.1    0.6
N    -3.8   -3.1    8.9
H     3.9    9.3   -1.3
H     3.8    4.0   -8.5
I     2.9   -6.8   -6.9
H     8.4    4.1    4.1
N     4.3    3.3    8.7
H    -2.9    4.0   -8.9
C    -3.4    3.2    9.1
C    -0.4    9.1    4.7
H     3.5   -4.1   -8.7
H    -8.2   -4.4   -4.2
C    -4.9    9.0   -0.3
H    -7.9    3.1   -5.7
C     1.1   -9.4    4.1
N     8.9    3.1   -4.2
H    -5.4    2.3   -8.5
H     3.5   -4.0    8.9
I     7.5   -6.7    2.6
H    -5.8    8.6    0.3
N     4.3    3.2   -8.9
H     8.4    4.0   -4.7
N    -0.3   -9.4    4.5
C    -5.2   -3.1    8.5
N    -0.3   -9.5   -4.2
C     4.0   -3.2   -9.1
N    -4.9    3.3    8.7
N     8.9    3.2    4.5
N     9.4   -2.4    4.0
H     0.6   10.0    3.1
C     5.5   -8.9    0.3
H    -3.3   -4.1   -9.1
H     9.6   -2.1   -3.8
H    -9.7   -1.6    3.9
H     9.7   -2.6    3.1
H     5.9   -2.3    8.5
H    -9.6    3.2   -3.2
H     0.5    8.9   -5.6
C     8.8   -3.6    4.7
C    -0.4    9.8   -3.9
H    -5.7   -2.3   -8.7
N    -4.9    3.2   -8.9
H     3.8    4.1    9.1
C     1.1   -9.5   -4.6
H     8.4   -3.3    5.7
H     6.3   -8.6   -0.4
C    -9.5   -2.8   -3.9
C     5.7    3.1   -8.5
N     5.4   -3.2   -8.7
H    -5.3    9.3   -1.3
H    -5.7   -2.2    8.9
P     0.3   -6.3    8.7
H    -5.4    2.4    9.0
H    -9.9   -3.2   -3.0
P     0.3    6.3    8.7
H    -5.3    4.0   -8.5
P     0.3    6.2   -8.8
H    -4.0    9.9    1.3
N    -9.5    3.1   -4.2
N     5.4   -3.1    8.9
I    -2.3   -0.5  -10.6
H     6.2    2.3    8.6
H     8.8    3.2    5.5
P    -8.9   -6.3    0.0
H    -8.8   -4.3    4.8
P     0.3   -6.4   -8.8
P    -8.9    6.4    0.0
H    -0.4   -9.4    5.5
N    -9.0   -4.0   -4.7
H     8.6   -4.7   -4.8
N    -9.4    3.2    4.5
C    -5.2   -3.2   -9.1
I     2.9    0.5   10.6
H     5.8   -9.2    1.3
H    -0.7    9.4    5.7
H    -9.9    2.4    4.1
I    -6.3    5.8   -6.9
H     4.5   -9.9   -1.3
H    -3.7   -3.1    9.9
H    -8.7   -3.7   -5.6
I    -6.9   -5.9    6.3
N     0.2   10.3    4.0
N    -4.3  -10.2   -0.4
H    -4.6   -9.9   -1.3
H     5.9   -4.0    8.5
H    -0.8  -10.2    4.1
H     6.2    2.2   -8.9
I    -4.1    9.6    3.8
I   -10.8    0.5    2.6
H     5.9   -2.4   -9.1
N    -4.4   10.2    0.3
I    -4.4   -9.5   -3.8
H    -5.7   -4.1   -8.7
N     9.3   -4.0   -4.7
H    -3.4    3.2   10.2
C     5.7    3.2    9.1
H    -9.9    2.3   -4.6
H     1.2   -9.6   -5.7
C    -9.5   -3.6    4.7
H    -3.6   10.6   -0.2
H     0.4   10.6   -3.8
H    -1.2   10.2   -4.5
H     4.2    3.2   -9.9
H     5.1    9.9    1.3
H    10.4    3.3    3.0
N     4.8   10.2    0.3
H    -5.7   -4.0    8.9
H    -5.3    4.1    9.1
N     4.9  -10.2   -0.4
H     1.6  -10.2    4.5
H    10.1   -2.0    4.6
I     4.8   -9.5   -3.8
P     9.4   -6.3    0.0
H     1.6  -10.4   -4.2
I     6.8   -5.8    7.0
H     4.1  -10.6    0.2
H    -0.8  -10.4   -4.6
H     3.9   -3.2  -10.2
I     7.5    5.8   -6.2
P     9.5    6.4    0.0
H     6.2    4.1    8.7
I     5.0    9.6    3.8
H    -3.5  -10.9   -0.5
H    -9.5    3.2    5.5
I    -4.1    9.4   -5.1
I    -1.6    0.5   11.4
H    -9.9    4.1    4.1
H     9.5   -4.3    4.8
I    -6.9    6.8    6.3
H    -4.9    3.2   -9.9
C    10.3    3.3    4.1
H   -10.4   -2.4   -4.5
I     2.2   -0.5  -11.3
H     6.2    4.0   -8.9
H     5.9   -4.1   -9.1
I    -4.4   -9.4    5.1
I    -6.3   -6.8   -6.9
H     4.0   10.9    0.5
H    -9.9    4.0   -4.7
H    -0.5   11.0    3.9
H     1.0   10.7    4.6
I   -11.5   -0.4   -1.8
C    10.3    3.1   -4.6
H    -5.0  -10.6    0.2
I     4.8   -9.4    5.1
H     5.5   -3.1    9.9
I    11.5   -0.4   -2.5
H    10.8    2.2   -4.2
H     9.6   -3.7   -5.6
H    10.1   -4.4   -4.2
H   -10.4   -3.9    4.1
H    -9.7   -4.7   -4.8
I     5.0    9.4   -5.1
H    -9.9   -3.3    5.7
I     6.8    6.8    7.0
I     7.5   -6.8   -6.2
H    -5.3   -3.2  -10.2
H    10.8    2.4    4.5
H     5.6   10.6   -0.2
H    -5.1   10.9    0.5
H     5.8    3.2   10.2
H    -7.6   -8.4    4.5
H    -7.6   -8.6   -4.2
H    10.4    3.1   -5.7
H    10.8    4.0   -4.2
I    12.1    0.4    1.8
H     5.6  -10.9   -0.5
I    -6.2    0.5   10.6
H    -8.2    8.2   -4.2
H     1.2    3.2   11.8
I    -2.4   -5.9  -10.6
H    -0.8   -3.4  -11.9
H    10.8    4.2    4.5
I    -8.8   -3.2   -8.1
I     0.2   -9.5    8.1
I     0.4    9.4   -8.1
H    -0.4    3.1  -12.0
I   -10.8    0.4   -6.2
H     0.5   -3.6   11.9
P    -8.9   -0.1   -8.8
I    -9.0    3.2    8.1
I     2.9    5.9   10.6
H     8.0    8.7    4.1
P    -8.9    0.0    8.8
H    -3.0   -8.5    8.7
H    -3.3    8.7    8.5
H    -3.4   -9.5   -7.4
I    -1.6  -12.2    2.6
P     0.3  -12.6   -0.0
I     6.8   -0.5  -10.6
I    -2.4   12.3   -1.8
I   -10.8    5.9    2.6
H     8.4   -8.6    4.1
H    -8.0   -9.3    3.0
H     8.6    7.9   -4.8
H     3.9    9.5    7.4
H     3.5    8.5   -8.7
H   -12.0    4.0   -0.4
H    -3.6    9.4   -7.7
