         400
 sphere cut out from bulk 
P     0.7   -0.3    1.5
I     0.3    2.3   -0.5
I    -1.5   -1.9   -0.1
H     0.5    0.8   -2.7
I     3.0   -1.2   -0.6
H    -2.7    2.3   -1.0
N     0.3    0.5   -3.7
H    -3.1    2.2    0.8
H     0.9   -1.5   -3.5
H    -0.7    0.3   -3.8
I    -1.4    0.8    3.6
H     1.2   -4.1   -0.1
C    -3.4    2.6   -0.2
C     1.2   -0.7   -4.1
H     4.1    1.2   -0.6
H     3.6    2.5    0.2
I     3.0    1.4    2.9
H    -2.5   -2.2    3.0
H     0.5    1.3   -4.3
H     2.2   -0.4   -4.0
I     1.3   -2.8    3.4
N     4.2    2.2   -0.5
H     3.9    2.6   -1.4
H    -4.1   -1.7    2.3
H    -3.3    3.7   -0.1
H    -4.8    1.2   -0.6
H     0.9    4.4    2.2
C    -3.5   -2.5    2.8
I    -3.1   -0.3   -4.1
P    -3.7   -2.8   -2.2
N    -4.7    2.2   -0.5
C     1.1   -5.2   -0.2
H     1.0   -0.9   -5.1
H    -0.9   -5.3    0.2
H    -3.6   -3.4    2.2
H    -0.6   -5.2   -1.4
H     0.4    0.5    5.5
P     0.8    5.0   -2.2
N    -0.2   -5.6   -0.5
H     4.9   -1.7    2.3
H     1.4   -5.6    0.8
H    -5.1    2.6   -1.4
I     3.1    3.3   -3.8
H     1.8   -5.5   -1.0
H    -5.4    2.5    0.2
I    -1.4    3.9   -4.4
I    -1.4   -4.5   -3.8
C     0.9    5.3    2.8
I    -6.0   -1.2   -0.6
C     5.6    2.6   -0.2
H     3.8   -2.9    4.0
H     5.9    2.2    0.8
H    -0.7    4.9    4.0
P     5.3   -2.8   -2.2
N     0.9    0.5    6.4
H     1.8    0.0    6.2
N    -4.2   -2.7    4.1
H     0.8    4.4    4.7
H    -4.2   -1.8    4.7
H     0.4    6.1    2.3
N     0.3    5.1    4.1
C     5.4   -2.5    2.8
I     3.1   -3.9   -4.4
I     3.0    5.9   -0.1
H     2.0    5.6    3.0
H    -0.3   -6.6   -0.6
H     5.4   -3.4    2.2
H     5.6    3.7   -0.1
H     6.3    2.3   -1.0
I    -1.5    6.6   -0.6
I    -6.0    1.4    2.9
H     1.2    1.5    6.6
N     4.8   -2.7    4.1
H    -3.7   -3.4    4.7
I    -3.2    5.0    3.4
P    -3.9    2.4    5.1
I    -4.2   -5.5   -0.5
H     4.8   -1.8    4.7
I     5.8   -0.3   -4.1
I    -1.4   -6.4    2.9
H    -5.2   -2.9    4.0
H    -0.0   -1.2    7.2
I     4.8   -5.5   -0.5
P    -3.8    2.3   -5.9
H     6.5   -2.2    3.0
P     0.6   -5.4    5.1
C     0.2   -0.2    7.5
P     5.1    2.4    5.1
H     0.3    6.0    4.7
H    -0.7    0.4    7.6
H    -3.3   -2.8   -6.4
I     7.5   -1.9   -0.1
I    -5.9    3.3   -3.8
H     5.3   -3.4    4.7
H    -6.8   -0.4   -4.0
I     2.9    0.7   -7.4
I    -2.0   -4.0    6.6
I     2.5    3.8    6.6
H    -3.6    6.3   -3.5
P     0.7   -5.5   -5.9
I     4.4   -0.3    6.8
P     5.2    2.3   -5.9
I    -4.6   -0.3    6.8
H     1.1    5.0   -6.4
I    -5.9   -3.9   -4.4
I    -1.9    3.4    7.4
I    -1.7    1.1   -8.1
I     5.8    5.0    3.4
P    -8.3   -0.3    1.5
H     0.8   -0.1    8.4
I     7.5    0.8    3.6
I     3.1   -7.0    3.6
I    -6.0    5.9   -0.1
I     0.3   -3.0   -7.9
H     4.1   -2.3   -7.1
H     0.3    4.0   -7.5
H    -4.0   -7.0   -2.7
P    -3.8    7.5    1.5
I     1.3    7.6   -4.1
H    -2.3    7.4   -4.0
H    -3.9   -6.5   -4.3
C    -4.0   -2.8   -7.3
H    -3.0   -1.2   -8.2
H    -7.8   -4.1   -0.1
C     0.5    5.0   -7.3
I    -7.7   -2.8    3.4
C    -7.8   -0.7   -4.1
C    -3.3    7.1   -4.1
H    -8.1   -1.5   -3.5
H    -4.9   -2.3   -7.1
H     5.6   -2.8   -6.4
H     5.4    6.3   -3.5
H    -8.5    0.8   -2.7
I    -8.7    2.3   -0.5
H    -0.4    9.0   -0.6
I     2.6   -4.4    7.4
P    -3.8   -8.1    1.5
H     5.0   -7.0   -2.7
H    -0.4    5.6   -7.1
H    -7.2   -5.5   -1.0
H     8.3    0.3   -3.8
I     1.4   -8.1   -4.1
I    -1.4   -9.0   -0.6
N    -4.2   -7.3   -3.7
N    -3.2   -2.2   -8.4
H    -2.3   -2.7   -8.6
C     5.0   -2.8   -7.3
H     3.8   -7.5   -3.8
H     5.0   -6.5   -4.3
P     5.2    7.5    1.5
H    -3.5    6.9   -5.1
H    -2.3   -8.2   -4.0
C    -7.8   -5.2   -0.2
N    -8.7    0.5   -3.7
H    -4.2   -3.8   -7.5
H    -7.1    0.0    6.2
H    -7.5   -5.6    0.8
H    -7.0    5.6    3.0
H    -8.1    4.4    2.2
N     4.8   -7.3   -3.7
H    -8.4    1.3   -4.3
I     7.6   -4.5   -3.8
H    -8.0   -0.9   -5.1
I     7.6    3.9   -4.4
I    -6.1    0.7   -7.4
I     9.3    2.3   -0.5
P     0.9   -0.2   -9.6
H     8.1   -5.3    0.2
H     3.8    8.1   -3.8
H    -3.3   -6.3    6.6
P     5.2   -8.1    1.5
H     4.8   -3.8   -7.5
H     0.4   -9.5    2.3
I    -1.5    9.2    2.9
P     9.7   -0.3    1.5
I    -5.9   -7.0    3.6
H     9.4    0.8   -2.7
H    -4.0    8.6   -2.7
I     3.0    8.6    3.6
P    -8.2    5.0   -2.2
H    -5.2   -7.5   -3.8
C     5.6    7.1   -4.1
C    -3.3   -8.5   -4.1
I     7.5    6.6   -0.6
H     8.4   -5.2   -1.4
N    -4.2    8.3   -3.7
N    -0.3   10.0   -0.5
I    -6.5    3.8    6.6
N     9.3    0.5   -3.7
H    -4.1   -7.3    5.5
C    -8.1    5.3    2.8
H     1.4   10.0    0.8
I    -0.1    7.5    6.8
I     3.0   -9.7   -0.1
P    -4.1   -2.8    8.9
H     5.4    6.9   -5.1
N     1.2    5.6   -8.4
P     0.4    5.0    8.9
H     6.0   -1.2   -8.2
H     2.1    5.1   -8.6
I    -4.2    4.8   -7.9
H    -8.6    0.5    5.5
H    -3.8   -2.2   -9.3
H     4.9    8.6   -2.7
N    -8.0    0.5    6.4
N     4.8    8.3   -3.7
H     1.8   10.1   -1.0
I     7.5   -6.4    2.9
H    -2.6   -7.8    6.2
H    -2.7    7.8    6.2
N    -3.5   -7.3    6.4
H    -7.8    1.5    6.6
I    -1.6   -7.1   -7.4
H    -5.2    8.1   -3.8
H     4.9   -7.3    5.5
H    -0.9   10.3    0.2
H     8.2    4.9    4.0
N     8.7   -5.6   -0.5
N     5.7   -2.2   -8.4
H    -9.7    0.3   -3.8
I     4.7    4.8   -7.9
H    -8.2    4.4    4.7
I     7.0   -4.0    6.6
C     1.1   10.4   -0.2
H    -3.9    1.7    9.6
P     4.9   -2.8    8.9
H     9.5    1.3   -4.3
H    -0.6   10.4   -1.4
H    -3.6   -9.3   -3.5
H     9.9   -1.5   -3.5
H     2.0  -10.0    3.0
I    -1.7   -1.3   10.4
I    -0.1   -8.1    6.8
H     1.5    6.6   -8.2
I   -10.5   -1.9   -0.1
C     1.0  -10.3    2.8
H     0.3   -9.6    4.7
H    -3.5   -8.7   -5.1
I    -6.4   -4.4    7.4
H     6.7    7.4   -4.0
H     4.4    6.6    7.2
H     5.7   -6.3    6.6
I     7.1    3.4    7.4
H    -4.2    8.3    5.5
H    -3.4    1.8  -10.1
H    -4.5    6.6    7.2
H    -8.6    6.1    2.3
N    -9.2   -5.6   -0.5
H     5.2   -2.2   -9.3
H     9.3    0.5    5.5
H    -4.0    9.1   -4.3
H     0.7    5.6   -9.3
P     0.8  -10.6   -2.2
I     2.8   -6.7   -8.1
H     8.6   -6.6   -0.6
N    -8.7    5.1    4.1
I    -4.2   10.1   -0.5
H    10.1   -4.1   -0.1
H    -9.5   -5.2   -1.4
C    10.1   -0.7   -4.1
I     7.3    1.1   -8.1
C     5.7   -8.5   -4.1
I     1.0    2.4   10.7
H     0.6   -4.5  -10.1
H     5.1    1.7    9.6
H     9.9    4.4    2.2
N    -3.6    8.3    6.4
H     4.8    8.3    5.5
I   -10.4    0.8    3.6
I    -5.9    8.6    3.6
N     5.4   -7.3    6.4
H     0.2   -3.8   10.5
H     6.7   -2.7   -8.6
I    10.3   -2.8    3.4
I     4.8   10.1   -0.5
P     9.7    5.0   -2.2
P    -8.4   -5.4    5.1
H    -9.9   -5.3    0.2
H     9.9   -0.9   -5.1
H     8.2    0.4    7.6
N     0.3  -10.5    4.1
H     5.0    9.1   -4.3
H     3.8   -7.4    7.6
H    -3.9    3.3  -10.1
H    -7.9    5.0   -6.4
H     5.4   -9.3   -3.5
H    -2.6    2.3   10.8
H     6.7   -8.2   -4.0
I    -5.9   -9.7   -0.1
N     9.2    5.1    4.1
H     0.7   -6.1    9.6
I    -1.6    8.5   -7.4
C    10.1   -5.2   -0.2
C    -3.7    2.0   10.6
H     9.4    6.1    2.3
H     0.9  -11.2    2.2
H    -9.3   -6.6   -0.6
P     0.6   10.2    5.1
H    -0.7  -10.7    4.0
I     2.8   -1.8   11.0
I    -7.6    7.6   -4.1
P    -8.2   -5.5   -5.9
H     5.5   -8.7   -5.1
C    -4.3    7.7    7.5
C    -8.8   -0.2    7.5
I    -3.2  -10.6    3.4
H     8.9   -1.2    7.2
H    -8.7    6.0    4.7
H     1.1   11.5   -0.1
H    -9.7    4.9    4.0
N    -3.9    2.5  -10.6
H    -9.0   -1.2    7.2
C     9.9    5.3    2.8
H     5.6    1.8  -10.1
C     4.7    7.7    7.5
H     9.7    4.4    4.7
H    -8.2   -0.1    8.4
I     1.6    2.4  -11.3
H     4.1    2.2  -10.8
C    -4.3   -8.0    7.5
P     0.7   10.1   -5.9
I     3.4   -1.8  -11.1
N     5.4    8.3    6.4
H     5.1    3.3  -10.1
N     9.9    0.5    6.4
I     7.5   -9.0   -0.6
H     6.3    7.8    6.2
H     1.1   -6.0  -10.1
I    -7.6   -8.1   -4.1
H     6.3   -7.8    6.2
H     3.7    8.2    7.6
H     3.5    2.9   10.9
C     9.2   -0.2    7.5
H    -5.2   -7.4    7.6
H    -3.3    9.3    6.6
I    -1.4   11.2   -3.8
H    10.4   -5.6    0.8
H    11.2   -0.4   -4.0
C     4.7   -8.0    7.5
I   -10.4    3.9   -4.4
I   -10.4   -4.5   -3.8
N     0.6   -5.3  -10.6
I    -1.1   -1.2  -11.8
H   -11.7    2.3   -1.0
H    -3.7    7.7    8.4
N     0.0   -4.7   11.0
H    -4.3    4.0   10.5
H     9.3    6.0    4.7
H    -1.0   -4.9   10.9
H    -3.9    1.1   11.3
H    -4.9    2.2  -10.8
N     5.1    2.5  -10.6
H   -11.5   -2.2    3.0
C     5.3    2.0   10.6
I    12.0   -1.2   -0.6
H    -3.7   -7.9    8.4
H    -6.8    5.1   -8.6
P     9.6   -5.4    5.1
H    -0.4   -5.6  -10.8
H     4.7    4.0   10.5
H     0.8  -11.2    4.7
C     0.9   -5.8   10.6
H    10.8   -5.5   -1.0
I    -8.7   -3.0   -7.9
H    -8.7    4.0   -7.5
H    10.1    1.5    6.6
I    -6.2   -6.7   -8.1
H     1.5   -9.0   -8.2
C    -8.5    5.0   -7.3
I     7.5    9.2    2.9
H     1.9   -5.5   10.8
H   -12.1    2.2    0.8
N     4.5    3.2   11.0
H    -0.4  -10.1   -7.1
N    -4.5    3.2   11.0
H    -2.2    3.0  -11.8
H    -3.3  -11.9   -0.1
H     4.5   -9.0    7.2
H    -9.7    0.4    7.6
H    -4.5   -9.0    7.2
I   -10.5    6.6   -0.6
H    -5.3    8.2    7.6
I     2.8    8.9   -8.1
H     1.2  -10.6   -6.4
H     5.1    1.1   11.3
H     8.5    5.6   -7.1
H    -7.2   10.1   -1.0
I    12.0    1.4    2.9
H     8.6    9.0   -0.6
I    -3.4   -5.4   10.7
H    10.8    0.0    6.2
P     0.5   -0.1   12.5
H    -7.0  -10.0    3.0
I     5.8  -10.6    3.4
H     5.3    7.7    8.4
I     9.2   -3.0   -7.9
P    -8.1   -0.2   -9.6
H    -7.6   10.0    0.8
I    -5.6   -1.8  -11.1
I     2.8    6.5   10.4
