         400
 sphere cut out from bulk 
I     0.6    0.6   -1.5
P    -1.2   -1.9   -0.7
H     2.3    1.0    0.9
I    -1.9   -0.6    2.2
H    -0.3    2.8   -2.1
C     3.3    1.0    1.2
H     3.8   -1.0    0.8
H     3.2   -0.7    2.4
N     3.8   -0.3    1.6
H     4.0    1.3    0.3
H    -2.4    3.3   -1.2
I     0.1   -4.2    0.8
H     3.5    1.7    2.0
N    -0.8    3.7   -2.4
H    -2.6    2.6   -2.8
H     2.0   -0.0   -4.2
C    -2.2    3.5   -2.2
I    -0.5   -3.1   -3.5
P    -0.5    1.0    4.6
H    -4.3   -0.3    2.0
I     1.7   -1.5    4.3
I    -4.2   -2.0   -1.3
H    -0.4    4.5   -1.9
I     1.5    3.1    3.6
H     1.8   -1.8   -4.4
H    -0.5    3.8   -3.4
H     4.8   -0.3    2.0
H    -5.2    1.3    0.3
C     2.3   -0.9   -4.8
I     4.9   -2.0   -1.3
H     1.8   -4.5   -2.6
H    -5.3   -1.0    0.8
H     4.0   -1.2   -3.6
P    -0.5   -3.9    3.9
N    -5.3   -0.3    1.6
H    -2.7    4.4   -2.6
C    -5.8    1.0    1.2
N     3.8   -1.1   -4.6
H     2.1   -5.5   -1.2
H    -5.6    1.7    2.0
H     2.1   -0.8   -5.8
C     2.3   -5.4   -2.2
H     4.1   -4.3   -1.9
H    -5.1   -1.2   -3.6
I    -3.1    2.7    4.9
H    -5.9   -0.7    2.4
I    -4.5    4.6    0.8
H     4.3   -0.3   -4.9
I     4.7    4.6    0.8
H     4.1   -2.0   -5.1
N     3.8   -5.2   -2.4
H    -4.8   -0.3   -4.9
H    -5.0   -4.3   -1.9
H    -6.8    1.0    0.9
I     0.3    6.9   -1.3
I    -1.9   -2.4    6.4
I    -4.0    1.9   -5.5
N    -5.3   -1.1   -4.6
H     2.0   -6.2   -2.8
I     0.3    4.5   -5.7
H     3.2   -2.3    6.1
H     4.0   -5.0   -3.4
H    -5.0   -2.0   -5.1
H    -0.6    1.2   -7.3
I    -3.1   -5.7    3.6
P     4.0    4.9    3.9
H    -1.1   -7.1    2.0
H     6.7    3.3   -1.2
H    -0.6   -7.5    0.3
I     7.2   -0.6    2.2
H     6.6    2.6   -2.8
H     4.3   -6.0   -2.1
P    -1.2   -4.4   -6.2
I     5.1    1.9   -5.5
P     3.4    7.0   -0.7
H    -1.1    4.2    6.5
I     4.0    5.7   -3.5
N    -5.3   -5.2   -2.4
I     0.1    1.2    7.7
H    -0.8    7.8    0.8
H    -5.1   -5.0   -3.4
I     1.5   -6.1    4.9
H    -4.8   -6.0   -2.1
C    -1.2   -7.8    1.2
C     6.9    3.5   -2.2
I     0.1   -2.1   -7.8
P    -5.1    4.9    3.9
H     6.4    4.4   -2.6
P     7.9   -1.9   -0.7
I     6.0    2.7    4.9
H    -2.3   -7.9    0.9
H    -7.1   -0.0   -4.2
I    -4.2   -4.3   -5.7
N     3.8   -2.6    6.9
H    -4.3   -2.7    6.6
H    -2.3    1.6   -7.9
C    -6.8   -0.9   -4.8
P     3.4    4.4   -6.2
I    -5.1    5.7   -3.5
C    -1.2    1.5   -8.2
H    -0.5    7.6   -3.6
H     4.8   -2.7    6.6
H    -0.4    6.9   -5.1
H    -1.4    8.1    2.4
H    -0.8    3.5   -7.8
I     4.9   -4.3   -5.7
I    -7.4   -1.5    4.3
N    -0.8    8.5    1.6
I    -8.6    0.6   -1.5
H    -7.3   -1.8   -4.4
H    -2.7    7.0   -4.4
H     3.5   -4.7    6.5
H     0.2    8.5    2.0
H     3.8   -2.0    7.7
H    -5.9   -2.3    6.1
I     0.6   -6.9   -5.5
C    -1.2    4.8    7.3
H     2.3   -3.9    7.6
I     2.7    8.2    2.2
H    -7.3   -4.5   -2.6
C    -6.8   -5.4   -2.2
I    -2.8    7.4    4.3
H    -7.0   -5.5   -1.2
C     3.3   -4.0    7.3
N    -0.8    7.7   -4.6
H     0.2    6.2    6.6
I    -7.7    3.1    3.6
I     6.0   -5.7    3.6
P    -5.7    7.0   -0.7
H    -1.1    0.8   -9.0
H    -1.4    6.6    6.1
N    -0.8    2.9   -8.6
N    -5.3   -2.6    6.9
H    -7.0   -0.8   -5.8
I    -4.0   -8.2   -1.5
N    -0.8    6.2    6.9
H    -2.3    4.9    7.6
N    -0.8   -9.2    1.6
H     0.2   -9.2    2.0
H    -0.6    4.5    8.2
H     0.2    2.9   -9.0
P    -1.2   -1.1    9.3
N     8.3    3.7   -2.4
I     2.7    6.5    6.4
C    -2.2    7.9   -4.8
H     8.9    2.8   -2.1
P    -5.7    4.4   -6.2
H    -5.3   -2.0    7.7
I     9.7    0.6   -1.5
P     8.6    1.0    4.6
I     8.6   -3.1   -3.5
I     5.1   -8.2   -1.5
H    -5.6   -4.7    6.5
H    -7.1   -6.2   -2.8
H    -0.3    8.6   -4.9
H    -0.8   -9.8    0.8
I     7.2   -2.4    6.4
H    -1.4   -9.5    2.4
H     8.7    4.5   -1.9
H     8.6    3.8   -3.4
P     4.0   -7.9    4.6
I    -9.0   -4.2    0.8
H    -9.4    2.8   -2.1
C    -1.2    9.9    1.2
H    -1.4    3.3   -9.4
I     2.7    3.2   -9.1
I     2.7   -9.4    2.2
H    -2.6    8.8   -4.2
H     4.0   -4.3    8.2
H    -2.3    9.8    0.9
H    -2.6   -8.9   -4.2
H     3.8   -5.3   -7.8
C    -5.8   -4.0    7.3
I     9.2   -4.2    0.8
H    -0.6   10.2    0.3
P     8.6   -3.9    3.9
H     2.1    2.6    9.7
H    -2.4    8.1   -5.8
H    -0.3   -9.1   -4.9
H    -0.8    6.9    7.7
I    -4.0    9.4   -1.5
P    -5.1   -7.9    4.6
H     6.4    7.0   -4.4
P   -10.3   -1.9   -0.7
H     6.8   -7.9    0.9
H     6.8    1.6   -7.9
I     6.3    7.4    4.3
H    -5.2   -4.3    8.2
I     0.6   -3.6   10.0
I    -6.4    8.2    2.2
I    -9.6   -3.1   -3.5
H    -0.5  -10.1   -3.6
H    -9.5    4.5   -1.9
P    -9.6    1.0    4.6
I    -4.2   -1.0    9.8
H    -1.1   10.6    2.0
N    -9.9    3.7   -2.4
H    -5.3   -5.3   -7.8
I     5.1    9.4   -1.5
I     0.3  -10.8   -1.3
H    -9.6    3.8   -3.4
I    -1.9   -5.7   -9.1
H     8.0   -7.1    2.0
I    -7.7   -6.1    4.9
H     2.3   -7.3   -7.9
H    -6.8   -3.9    7.6
N    -0.8  -10.0   -4.6
I     4.9   -1.0    9.8
P     7.9   -4.4   -6.2
I    -3.1   -0.6  -10.6
C    -2.2   -9.8   -4.8
P    -9.6   -3.9    3.9
N     3.8   -6.0   -8.6
I    -6.4    6.5    6.4
H     8.0    4.2    6.5
P    -0.5   -2.4  -10.9
C     7.9   -7.8    1.2
I   -11.0   -0.6    2.2
I    -8.8    6.9   -1.3
P     3.4  -10.7   -0.7
I    -4.5    6.8   -7.8
C     2.3    2.4   10.8
H     4.0   -7.6   -7.3
H     8.5    1.2   -7.3
H     4.1    1.4   10.4
I     4.7    6.8   -7.8
H     1.8    1.5   11.1
H     3.2   -5.6   -9.4
H     6.8    4.9    7.6
H     8.5   -7.5    0.3
I    -8.8    4.5   -5.7
C     3.3   -7.3   -8.2
C     7.9    1.5   -8.2
H     7.7    8.1    2.4
H     8.3    7.8    0.8
H    -2.4   -9.6   -5.8
H    11.4    1.0    0.9
C     6.9    7.9   -4.8
I    -2.8  -10.3    4.3
P     4.0    9.8    4.6
I    -6.4    3.2   -9.1
I    10.6    3.1    3.6
H    -4.3   -6.0   -9.0
I    -6.4   -9.4    2.2
H    -5.0    1.4   10.4
I    -4.5   -7.6    7.7
I     9.4    6.9   -1.3
I    10.8   -1.5    4.3
H     6.6    8.8   -4.2
H    -5.2   -7.6   -7.3
N    -5.3   -6.0   -8.6
H     4.8   -6.0   -9.0
I     4.7   -7.6    7.7
N     3.8    2.2   10.9
H    -2.4   -6.3    9.7
H     6.6   -8.9   -4.2
C     7.9    4.8    7.3
H     4.3    3.1   10.6
H    -2.7  -10.7   -4.4
H     7.7    6.6    6.1
H    11.1   -0.0   -4.2
I     9.4    4.5   -5.7
H    10.9   -1.8   -4.4
I    -9.0    1.2    7.7
H    -0.4  -10.8   -5.1
H     2.0   11.4   -2.8
H     8.3    3.5   -7.8
P    -5.1    9.8    4.6
H     2.0    3.3   11.3
I     1.5   -0.2  -11.9
I    -4.0    5.3   10.0
H     6.7    8.1   -5.8
H     6.8    9.8    0.9
H     8.6    7.6   -3.6
N     8.3    8.5    1.6
I    -0.5    0.2   12.0
H    -4.8    3.1   10.6
H   -11.5    3.3   -1.2
C   -11.4    3.5   -2.2
H    10.9   -4.5   -2.6
I     9.2    1.2    7.7
H    -0.3   -5.8   10.6
H     8.0    0.8   -9.0
I    -9.0   -2.1   -7.8
I     0.6   10.8   -5.5
P    -5.7  -10.7   -0.7
H     8.7    6.9   -5.1
I     6.0   -0.6  -10.6
H    -9.7    1.2   -7.3
H    -7.0    2.6    9.7
I     9.2   -2.1   -7.8
N     8.3    7.7   -4.6
P     7.9   -1.1    9.3
H   -11.7    2.6   -2.8
I    -2.8    4.0  -11.2
H    -9.7   -7.5    0.3
I    -8.6   -6.9   -5.5
N     8.3    2.9   -8.6
I     1.7   -4.8  -11.2
N    -5.3    2.2   10.9
P     4.0    1.6  -11.6
C    -5.8   -7.3   -8.2
H     2.1   12.1   -1.2
I     5.1    5.3   10.0
C    11.4   -0.9   -4.8
H    -5.9   -5.6   -9.4
N     8.3    6.2    6.9
H    -8.9    8.5    2.0
N     8.3   -9.2    1.6
H     7.7   -9.5    2.4
P     3.4    7.7    9.3
H     3.5   -8.0   -9.0
H    12.3   -0.7    2.4
C    12.5    1.0    1.2
H     7.7    3.3   -9.4
H    11.2   -5.5   -1.2
H   -10.2   -7.1    2.0
I     0.3    7.9    9.8
H     4.3   11.7   -2.1
H    -9.9    7.8    0.8
I     1.5   11.6    4.9
H     8.5    4.5    8.2
H    -8.9    6.2    6.6
H    11.2   -0.8   -5.8
C     7.9    9.9    1.2
H    -6.8   -7.3   -7.9
C     2.3   12.3   -2.2
C    -2.2   -6.4   10.8
P    -5.1    1.6  -11.6
H    -1.4  -11.1    6.1
H     4.0    2.1   11.9
H    -4.8   11.7   -2.1
H    -9.6    7.6   -3.6
H   -10.2    4.2    6.5
H     9.3    8.5    2.0
I     6.3  -10.3    4.3
N    -0.8   -6.6   10.9
P   -10.3   -4.4   -6.2
H    -9.5    6.9   -5.1
C    11.4   -5.4   -2.2
H    -0.4   -7.5   10.4
C     6.9   -9.8   -4.8
H     4.0   -1.7   12.1
H    12.6    1.7    2.0
I    -3.1   12.0    3.6
H    -2.6   -5.6   11.3
H   -11.9    4.4   -2.6
I   -11.0   -2.4    6.4
H     8.3   -9.8    0.8
H    -8.9   -9.2    2.0
C    -6.8    2.4   10.8
H    -8.9    2.9   -9.0
H    12.9   -1.0    0.8
H     9.3    6.2    6.6
I     7.2   -5.7   -9.1
N    12.9   -0.3    1.6
C   -10.3   -7.8    1.2
H    11.1   -6.2   -2.8
H     6.7   -9.6   -5.8
H     4.0   10.1   -7.3
H    -9.9    3.5   -7.8
I     9.7   -6.9   -5.5
I     4.0  -12.0   -3.5
H     1.8   -1.2   12.9
H    13.1    1.3    0.3
N    -9.9    8.5    1.6
H    -5.1    2.1   11.9
I    10.6   -6.1    4.9
H     6.4  -10.7   -4.4
I     2.7  -11.2    6.4
H     2.0   -2.9   12.7
H     9.3   -9.2    2.0
H     9.3    2.9   -9.0
H    -5.1   -1.7   12.1
H     0.2  -11.5    6.6
C   -10.3    1.5   -8.2
H     2.3   10.4   -7.9
H     8.5   10.2    0.3
H     8.3    6.9    7.7
H     8.9    8.6   -4.9
N     3.8   12.5   -2.4
H    -5.6   -8.0   -9.0
P     4.0    6.5  -10.9
H    -0.8  -10.8    7.7
H    -0.4  -13.2   -1.9
H     6.7   -6.3    9.7
P    -5.7    7.7    9.3
N    -9.9    7.7   -4.6
H    -7.3    1.5   11.1
N    -0.8  -11.5    6.9
H     8.0   10.6    2.0
N    -9.9    2.9   -8.6
I   -12.2    2.7    4.9
I    -4.5   10.1    7.7
H    -5.2   10.1   -7.3
I    -5.1  -12.0   -3.5
I     0.1   13.5    0.8
H   -10.5    8.1    2.4
I     6.3    4.0  -11.2
H    -9.7    4.5    8.2
