         400
 sphere cut out from bulk 
I     1.3   -0.7   -1.2
P    -1.0    1.3   -2.2
H     1.2   -2.4    0.6
H    -2.4   -0.6    1.5
I    -0.9    2.7    0.7
H    -2.0    0.8    2.6
C    -2.6   -0.2    2.5
N     1.2   -3.3    1.1
I    -3.5   -0.7   -1.2
H     0.5   -3.4    1.8
H    -2.3   -0.8    3.3
H     2.2   -3.4    1.6
H     0.2   -4.3   -0.5
P     3.8    1.1   -2.2
C     1.1   -4.4    0.1
I     3.7    2.5    0.8
I     1.4    3.1   -3.1
H    -4.3    0.8    1.8
N    -4.0    0.2    2.5
H     2.0   -4.3   -0.6
P     1.4    4.0    2.3
I    -1.0   -0.1   -5.1
H    -4.6   -0.7    2.5
I    -1.3   -3.7    3.6
H    -2.6   -2.8   -3.9
H    -3.5    4.2    0.6
H    -4.2    0.7    3.4
H     1.2   -5.3    0.6
I    -3.6    3.1   -3.1
I     1.4    2.4    5.0
H     5.2   -0.7    2.5
H     5.5    0.8    1.8
H    -2.7    5.2   -0.6
H     2.4   -0.4    5.4
I     4.3   -3.0    2.9
C    -3.5    5.1    0.1
I     3.6   -0.2   -5.1
C    -3.5   -2.7   -4.4
H    -3.6   -1.7   -4.9
N     5.8    0.2    2.5
H    -4.4   -2.8   -3.7
I     6.3   -0.7   -1.2
P    -6.0    1.1   -2.2
H     5.6    0.7    3.4
I    -6.1    2.5    0.8
H     2.1   -2.0    6.1
H    -2.5    6.2    1.6
C     2.7   -1.1    6.2
H    -2.8    1.6   -6.1
H    -4.5    5.3   -0.5
I    -5.5   -3.0    2.9
P     1.3   -1.6   -6.6
P    -3.7   -5.5    2.3
H     1.5    4.8   -4.9
H     4.3   -2.0    5.2
H     5.4   -2.8   -3.7
I    -0.4    6.5    2.9
N    -3.4    6.2    1.1
I    -1.5   -7.0    0.8
H    -0.4    2.1    6.9
I     1.1   -6.4   -3.1
I    -4.1    1.7    5.7
H     5.3    5.3   -0.5
N     4.1   -1.5    6.1
N    -3.6   -3.8   -5.4
H     6.3    4.2    0.6
H     7.4   -0.6    1.5
I     6.2    3.1   -3.1
H    -4.2    6.1    1.8
H     2.5   -0.7    7.2
C     7.2   -0.2    2.5
H    -2.0    2.1    7.1
H     0.8    6.7   -3.7
H    -3.6   -4.7   -4.9
H    -2.9   -3.7   -6.1
H     4.7   -0.6    6.2
I     3.8   -6.9    0.7
N    -3.1    2.2   -6.9
I     3.9    5.8    3.6
H    -5.5   -2.0    5.2
H    -2.5    3.1   -6.8
N    -1.1    2.0    7.6
H    -3.4    7.1    0.6
I    -6.2   -0.2   -5.1
I    -3.7   -6.4   -3.1
N     1.5    5.7   -5.4
H    -5.1   -0.6    6.2
H    -4.7    3.1   -5.8
H     6.2   -1.7   -4.9
C     6.3    5.1    0.1
C     6.3   -2.7   -4.4
H     2.6    6.7   -3.9
H     7.5   -0.8    3.3
H    -1.1    1.1    8.1
I     5.7    1.7    5.7
C     1.6    6.8   -4.4
H     7.8    0.8    2.6
H     0.6    5.8   -5.9
H     5.1    3.1   -5.8
H    -4.6   -3.7   -5.9
P    -1.3   -5.3    6.4
H    -2.9    1.7   -7.8
H     4.4   -2.1    6.9
N    -5.7   -1.5    6.1
H    -7.6   -3.4    1.6
H     5.6    6.1    1.8
H     4.7    1.7   -6.9
P     6.1   -5.5    2.3
C    -4.5    2.6   -6.8
P     3.9    4.2    6.4
I    -8.5   -0.7   -1.2
H     7.2   -2.8   -3.9
H    -0.0   -6.5   -5.8
I    -1.1   -3.4   -8.0
H    -5.1    1.7   -6.9
H     5.2   -3.7   -5.9
P    -1.4   -8.4   -2.2
H     2.3    5.8   -6.1
H     7.1    5.2   -0.6
H     0.4   -8.7    1.8
I     3.1   -4.1   -7.3
I     1.0   -3.9    7.9
H    -8.6   -2.4    0.6
H    -7.8   -4.3   -0.6
N     6.4    6.2    1.1
C     5.3    2.6   -6.8
H    -5.4   -2.1    6.9
N     6.2   -3.8   -5.4
I    -5.9    5.8    3.6
I     1.7    8.9   -1.2
P     8.8    1.3   -2.2
H    -1.1    4.1    8.1
H    -7.4   -0.4    5.4
I    -6.0   -6.9    0.7
H    -0.4    7.5    5.2
I    -1.5    5.4   -7.3
H     6.2   -4.7   -4.9
H     0.6    8.8    2.5
C    -1.0    3.1    8.6
N    -8.6   -3.3    1.1
P     3.6   -8.2   -2.2
H     1.6    7.8   -4.9
I     8.9    2.7    0.7
I     6.1   -6.4   -3.1
H     2.8    8.9    1.5
H     7.0    1.6   -6.1
H     0.5   -8.8    3.4
I    -8.4    3.1   -3.1
I    -3.7   -7.1    5.0
I     1.3   -0.0   -9.4
I    -3.6   -3.8    7.9
I    -3.3    8.8   -1.2
H     2.7   -8.8    2.6
C    -7.1   -1.1    6.2
H    -4.7    3.3   -7.6
H     6.4    7.1    0.6
P    -8.4    4.0    2.3
H    -0.1    3.0    9.1
H     2.2   -6.4   -6.8
N     0.7   -9.3    2.5
H     2.8    8.7    3.3
H     7.3    6.2    1.6
P    -5.9    4.2    6.4
C     0.1   -6.9   -6.8
H     5.1    3.3   -7.6
I     0.5   -7.8    5.7
C    -8.7   -4.4    0.1
H    -0.1   -6.2   -7.6
I     1.6    5.7    7.9
N     6.7    2.2   -6.9
H    -1.8    3.0    9.3
H     6.9   -3.7   -6.1
I     8.5   -3.7    3.6
I    -1.2   -0.6    9.9
H    -2.6    7.5    6.1
C     2.6    9.4    2.5
H    -7.7   -2.0    6.1
H    -9.3   -3.4    1.8
I    -8.4    2.4    5.0
N     1.2    9.7    2.5
N    -0.5    8.0    6.1
H    -0.2    7.4    6.9
N     1.6   -7.3   -6.9
H     1.9   -7.9   -6.1
H     0.3    2.9   -9.7
H    -8.6   -5.3    0.6
C     2.1   -9.7    2.5
I     8.8   -0.1   -5.1
H    -7.3   -0.7    7.2
I     1.2  -10.2   -1.2
I    -3.6    5.6    7.9
H     3.6   -5.5    8.1
H    -0.4   -7.8   -6.9
H     7.3    3.1   -6.8
H     0.1  -10.2    2.5
H     2.3  -10.1    1.5
H     0.9   10.3    1.8
P    -6.2   -8.2   -2.2
I    -2.9    0.7  -10.1
H    -9.6   -4.3   -0.5
H     6.9    1.7   -7.8
I     3.6   -0.6    9.9
H    -7.2    6.7   -3.9
I     6.1   -7.1    5.0
H     2.6   -7.4    7.1
I    -1.0    9.3   -5.1
C    -2.0    8.4    6.2
H    -1.6    4.4   -9.6
I    -6.7   -4.1   -7.3
H     7.8    2.1    7.1
H    -8.3    4.8   -4.9
I     6.2   -3.8    7.9
H    -2.2    9.1    5.4
H     0.0    8.9    6.2
H     1.0   10.2    3.4
I     4.0    6.1   -8.0
H    10.0   -4.3   -0.5
P    -8.5   -1.6   -6.6
P    -3.3    8.0   -6.6
P    -1.1   -1.8  -10.7
P    -0.9   10.7   -2.2
I     8.4   -7.0    0.8
H    10.3   -3.4    1.8
I     6.5    8.8   -1.2
H     4.3   -7.4    6.9
I    -3.8  -10.2   -1.2
I   -10.7    2.7    0.7
H     3.2   10.3    2.6
I    -1.5   -9.7   -5.1
P   -10.8    1.3   -2.2
H     2.3  -10.4    3.3
H    -1.9    3.0  -10.5
C     0.1    3.6  -10.6
H     1.8   -7.8   -7.8
I    11.1   -0.7   -1.2
P     1.1   -2.6   10.9
N     3.5   -7.5    7.6
N    -1.4    3.9  -10.5
I    -8.7   -6.4   -3.1
H    11.0   -2.4    0.6
H     3.1   -5.1   -9.6
H    -7.5    5.8   -6.1
C     3.6   -6.4    8.6
H     0.7    4.5  -10.5
H    -7.0    8.9    1.5
N    -8.3    5.7   -5.4
I     3.7   -9.6   -5.1
I     6.2    5.6    7.9
I     4.2    9.4   -5.1
H    -5.5   -7.4    6.9
C    -8.2    6.8   -4.4
H    -7.1   -8.8    2.6
N    11.0   -3.3    1.1
H    -6.2   -5.5    8.1
H    -7.0    8.7    3.3
I    -5.8    6.1   -8.0
H    -2.2    8.9    7.2
H     3.1    0.3  -11.2
H    -2.7  -10.0    5.4
P    -3.6   -2.4   10.8
N     8.7    2.0    7.6
I    -6.2   -0.6    9.9
H     2.8   -6.5    9.3
P     4.1   10.8   -2.2
C    10.9   -4.4    0.1
I     9.4    6.5    2.9
H    -9.0    6.7   -3.7
P     8.5   -5.3    6.4
H     9.4    2.1    6.9
H    -0.5  -10.1    6.2
I     6.0  -10.2   -1.2
I   -10.8   -0.1   -5.1
H     0.3    3.1  -11.5
H     8.7    1.1    8.1
C    -7.2    9.4    2.5
P     8.4   -8.4   -2.2
H   -11.8    0.8    2.6
H     7.2    7.5    6.1
I    11.2    3.1   -3.1
I    -0.9   12.0    0.8
H    -7.6   -6.4   -6.8
I    -8.1    8.9   -1.2
I    -5.6    9.4   -5.1
P    11.2    4.0    2.3
H     4.6   -6.5    9.1
H     3.6   -8.4    8.1
H    11.0   -5.3    0.6
P     6.5    8.0   -6.6
I     6.9    0.7  -10.1
I   -11.1   -3.7    3.6
H    -1.7    4.5  -11.3
I     8.7   -3.4   -8.0
H   -12.2   -0.6    1.5
I     8.3    5.4   -7.3
N     3.3   -5.6  -10.5
H     1.1  -11.3   -4.9
H    -8.2    7.8   -4.9
N    -6.3   -7.5    7.6
H    -9.2    5.8   -5.9
P    -5.7   10.8   -2.2
H    -5.2   -6.5    9.1
C    -6.2   -6.4    8.6
H     4.8    0.4  -11.4
I   -10.2    6.5    2.9
H    -4.5   -5.0  -10.5
H   -10.2    2.1    6.9
I    -6.1   -9.6   -5.1
H    -6.6   10.3    2.6
H    -5.0    0.4  -11.4
I    -8.8   -3.9    7.9
H    12.0   -3.4    1.6
I    11.2    2.4    5.0
H    11.8   -4.3   -0.6
N     3.9    0.4  -11.9
H    -7.2   -7.4    7.1
H    -4.0  -11.9    0.6
C    -2.5  -10.6    6.2
H   -12.1   -0.8    3.3
C   -12.4   -0.2    2.5
H     8.7    4.1    8.1
C    -7.7   -9.7    2.5
H     8.0    3.0    9.3
I    -8.5   -0.0   -9.4
N    -1.0  -11.0    6.1
H     2.7   -6.5  -10.5
I     1.0   11.2    5.7
H     3.0   -5.0  -11.3
I    -1.3   -4.4   11.8
H    -0.9  -11.5    5.2
C     8.8    3.1    8.6
P     6.2   -2.4   10.8
H    -7.5  -10.1    1.5
H    -2.7  -10.2    7.2
I     1.2   -3.3  -12.2
H    -7.9   -7.9   -6.1
H    -6.7   -5.1   -9.6
H    -4.8   -6.6   -9.7
H     5.3   -5.0  -10.5
I    -8.2    5.7    7.9
H     5.0   -6.6   -9.7
I    -0.9  -12.5    2.9
H     0.3  -12.3   -3.7
I    -1.0    5.1   11.8
H     2.4   11.1   -6.1
I     4.3   12.2    0.7
H     2.7    1.5   12.5
H    -9.4   -8.7    1.8
N    -8.2   -7.3   -6.9
H     7.6    9.1    5.4
C     4.7   -6.0  -10.6
I    10.9   -6.4   -3.1
H    -9.2    8.8    2.5
P     1.5    7.1   10.8
C     1.1  -12.2   -4.4
C     7.8    8.4    6.2
H    10.6    6.7   -3.7
P    11.1   -1.6   -6.6
H    -6.7    0.3  -11.2
H     3.8    1.3  -12.4
I     1.6   12.6   -3.1
H     9.8   -6.5   -5.8
I     3.7   -4.4   11.8
H     2.1  -12.3   -3.9
H     3.8   -1.6  -12.5
I    -3.4   -3.1  -12.3
I     8.6   -0.6    9.9
H    -9.8   -6.5   -5.8
C    -5.1   -6.0  -10.6
H     0.1   11.2   -6.9
H     9.4    7.5    5.2
H    -7.5  -10.4    3.3
H    -6.2   -8.4    8.1
H     4.5    1.5   12.4
N    -8.6    9.7    2.5
H    11.3    4.8   -4.9
I   -11.3   -7.0    0.8
H    -9.3   -8.8    3.4
H     5.9  -11.9    0.6
H    10.4    5.8   -5.9
H   -12.4   -2.8   -3.9
N    -9.1   -9.3    2.5
H    -3.0  -12.9    1.6
N    -5.9    0.4  -11.9
I    -1.0    8.9    9.9
H    -7.0   -6.5    9.3
P    -3.5    6.9   10.9
H     7.1  -10.0    5.4
I    -3.2   11.9    5.0
I   -13.3   -0.7   -1.2
H    12.2   -0.4    5.4
I    -5.5   12.2    0.7
H     8.2    4.4   -9.6
I     3.8    5.1   11.8
I    -8.6  -10.2   -1.2
I    -3.2   12.7   -3.1
H    -3.1  -11.6    6.1
I    -9.3   -7.8    5.7
N   -10.9    2.0    7.6
N    -3.9  -12.8    1.1
P    -3.8  -11.1   -6.6
