         400
 sphere cut out from bulk 
I    -0.5   -1.3    0.1
P     0.9    1.1    1.9
H    -2.6    0.7   -1.2
P     2.0   -1.7   -1.8
I    -0.4    3.3    0.2
I     3.4    0.5    0.1
H    -2.8   -1.5    1.5
H    -1.3    1.6   -3.0
C    -3.0    1.6   -1.7
H    -2.7    2.5   -1.2
H    -3.1   -0.3    2.6
N    -2.3    1.6   -3.1
N    -3.5   -1.1    2.0
I     1.0    0.5   -4.1
H    -4.2   -0.7    1.4
H    -2.6    0.8   -3.6
I     1.7   -1.1    4.2
H    -4.0    1.5   -1.9
I    -1.9    1.2    4.2
H    -2.6    2.5   -3.6
H    -0.8   -5.0   -1.4
I     3.6   -3.9   -0.2
H     5.1   -0.7    1.4
C    -4.1   -2.0    3.0
H    -3.4   -2.4    3.6
I     2.0    3.0    4.2
I    -3.0   -1.6   -4.4
H    -0.5    5.4    1.3
I     1.1   -3.7   -4.1
H     5.3    1.5   -1.9
H    -2.0   -4.9   -2.6
H     4.5   -1.5    3.6
H    -4.6   -2.8    2.4
I    -5.9    0.5    0.1
H     4.7   -2.8    2.4
C    -1.5   -5.5   -2.0
H     1.3    2.8   -5.4
H    -4.9   -1.5    3.6
N     5.8   -1.1    2.0
P    -0.3   -1.7   -6.1
C     5.2   -2.0    3.0
P     0.5    1.1    6.3
H     0.7   -3.6    5.3
N    -0.5    6.3    1.8
H    -2.2   -6.1   -1.4
H     0.9    5.8    3.2
H     6.3   -0.3    2.6
C     6.4    1.6   -1.7
H    -3.5    2.8    5.2
H    -1.3    6.2    2.5
H     6.7    0.7   -1.2
H    -0.1   -6.0   -3.4
H     6.6   -1.5    1.5
H    -0.9   -4.4    5.2
I    -5.7   -3.9   -0.2
H     1.5    6.6    1.8
C     0.7    6.6    2.5
H     1.4    4.5   -5.3
N     1.2    3.7   -6.0
N    -0.7   -6.5   -2.8
I    -3.3    4.8   -4.1
H    -0.8    7.0    1.1
C    -0.1   -4.1    5.9
H     6.6    2.5   -1.2
H    -0.9    3.8   -6.1
H     6.0   -2.4    3.6
I    -3.4   -5.5    3.6
H     4.2    3.4    5.1
H    -0.2   -7.2   -2.3
H    -0.5   -3.5    6.7
P     3.8   -6.5    1.5
H     6.7    0.8   -3.6
P    -7.3   -1.7   -1.8
N    -4.1    3.6    5.5
C    -0.0    3.9   -6.8
H    -3.8    4.5    5.1
N     7.0    1.6   -3.1
H     2.1    3.7   -6.6
I     6.4   -1.6   -4.4
H    -1.4   -7.0   -3.4
H    -5.1    3.4    5.1
H     6.7    2.5   -3.6
H     4.5   -3.2   -5.9
H    -0.1    3.0   -7.5
H     0.7    7.5    3.0
H     3.4   -4.6   -5.8
I     1.7   -8.0   -0.5
H    -4.8   -3.2   -5.9
H     5.8    2.8    5.2
H     0.8   -6.0    5.7
I    -1.2    0.5   -8.2
N     5.2    3.6    5.5
I    -2.9    6.5    4.3
I    -1.0   -1.1    8.2
N     0.5   -5.3    6.5
I     2.2   -7.2    4.0
I     2.4    6.8   -4.6
H    -4.2   -4.9   -5.7
I     7.4    1.2    4.2
P    -5.5   -6.5    1.5
C     4.4   -4.3   -6.1
I    -2.8    8.2   -0.2
I     2.3   -1.8   -8.2
H     0.0    4.8   -7.3
I     6.0    4.8   -4.1
H     8.1    1.6   -3.0
P    -8.5    1.1    1.9
H     5.5    4.5    5.1
I    -7.7   -1.1    4.2
H     1.3   -5.1    7.1
I     2.4    8.5   -0.5
P     4.6    7.2   -2.4
I     2.8    0.8    8.4
I     6.0   -5.5    3.6
C    -4.2    3.6    7.0
I     8.8   -1.3    0.1
P    -4.7    7.2   -2.4
H    -3.2    4.0    7.4
I    -3.5   -8.3   -0.2
C    -5.0   -4.3   -6.1
I    -7.4    3.0    4.2
I    -0.7    3.1    8.4
H    -4.4    2.6    7.4
H     5.2   -4.9   -5.7
H     7.3   -4.9   -2.6
H    -0.2   -5.9    7.0
I    -8.3    0.5   -4.1
H     4.9    2.6    7.4
I    -1.5   -3.7   -8.4
C     5.1    3.6    7.0
H    -0.0   -9.0    3.0
H    -3.4   -1.6    8.7
H     7.2   -6.1   -1.4
H    -6.0   -4.6   -5.8
H     4.4    4.3    7.3
I     9.0    3.3    0.2
I    -3.9   -7.5   -4.5
H     0.5    9.3   -2.3
H     3.8   -3.7   -8.0
H    -1.5   -9.5    1.1
H     4.3   -1.1    8.6
H    -3.9   -4.2   -7.9
C     7.9   -5.5   -2.0
H    -5.0    4.3    7.3
N     4.4   -4.4   -7.6
I    -8.2   -3.7   -4.1
I    -9.8   -1.3    0.1
H    -5.0   -1.1    8.6
H     8.6   -5.0   -1.4
H     0.8   -9.9    1.8
N    -4.9   -4.4   -7.6
H    -0.7    9.4   -3.4
I     3.7   -5.0    7.9
H    -3.7    1.4   -9.3
I     5.8   -8.3   -0.2
H    -8.1    2.8   -5.4
I     6.4    6.5    4.3
N    -4.4   -1.8    9.0
H     4.4    0.0   -9.2
I    -9.7    3.3    0.2
I     3.7    4.6   -8.3
C     0.1   -9.9    2.5
H     4.6   -2.7    8.7
H     3.8    1.7   -9.3
H    -4.7   -2.7    8.7
I     5.4   -7.5   -4.5
P     3.9   -9.3   -2.4
P    -4.3    6.8   -6.5
H     6.1    4.0    7.4
H    -7.8    6.6    1.8
N    -0.0   10.0   -2.8
H    -5.5   -3.7   -8.0
H     4.1   -5.4   -7.9
H     8.8    5.4    1.3
N    -1.2  -10.2    1.8
P    10.2    1.1    1.9
N     5.0   -1.8    9.0
H    -4.9    0.0   -9.2
H     8.0    6.2    2.5
P    -0.1   -1.5  -10.4
H     5.4   -4.2   -7.9
I     6.5    8.2   -0.2
H    -7.3    3.7   -6.6
P    -4.5   -7.5    5.9
I     2.9    9.3    4.0
H    -1.5   10.4   -1.4
H    -7.9    4.5   -5.3
I    -3.2    9.0   -4.5
P     0.2    0.9   10.6
H     5.9   -1.6    8.7
P     4.8   -7.5    5.9
I    -6.5    0.8    8.4
P     5.0    6.8   -6.5
H    -8.4    5.8    3.2
N    -8.1    3.7   -6.0
C     4.6    1.0   -9.6
H    -2.0  -10.2    2.5
I    -6.9    6.8   -4.6
H     0.5    5.7    9.2
C    -4.7    1.0   -9.6
H    -8.7   -3.6    5.3
H     8.4   -4.4    5.2
I     1.7   -9.7   -4.6
I    -7.1   -7.2    4.0
P    -8.9    1.1    6.3
H    -5.2   -5.4   -7.9
H     5.6    1.4   -9.3
I    -5.6   -5.0    7.9
I    -6.9    8.5   -0.5
N     8.8    6.3    1.8
H    -5.5    1.7   -9.3
I    -7.1   -1.8   -8.2
P     9.0   -1.7   -6.1
I    -2.1   -7.2    8.0
P    -5.4   -9.3   -2.4
I    -1.9    6.6   -8.6
I    -7.6   -8.0   -0.5
I    -5.6    4.6   -8.3
H     0.6   10.5   -3.4
P     4.5   10.0    1.5
H     8.5    7.0    1.1
C    -8.6    6.6    2.5
H     8.5    3.8   -6.1
H   -10.6    1.6   -3.0
I    10.4    0.5   -4.1
C    -0.8   10.9   -2.0
H     7.9   -7.0   -3.4
N     8.6   -6.5   -2.8
H     0.2  -10.7    3.2
P    -4.8   10.0    1.5
H    -1.2  -11.1    1.3
H    -9.8    5.4    1.3
H   -10.1   -5.0   -1.4
P    -3.8    9.0    5.9
I    -3.6   -9.9    4.3
C    -4.4   -1.7   10.5
P    -9.6   -1.7   -6.1
H     9.3   -6.0   -3.4
I     8.1    0.5   -8.2
H    -0.1   11.5   -1.4
H    -4.3   -0.6   10.8
P    11.4   -1.7   -1.8
H     8.9   -3.5    6.7
H    -9.4   -6.0   -3.4
C     9.2   -4.1    5.9
P     9.8    1.1    6.3
H    -1.0   -6.1   -9.9
H     3.9   -2.0   10.8
C     4.9   -1.7   10.5
H    -3.6   -2.3   10.9
I     4.2    7.2    8.3
I    10.4   -3.7   -4.1
I     8.3   -1.1    8.2
I     6.1    9.0   -4.5
C     0.5    6.5    9.9
I    11.0   -1.1    4.2
N    -9.9    6.3    1.8
H     9.2   -7.2   -2.3
C    -9.4   -4.1    5.9
H    10.0   -3.6    5.3
H    -8.5   -6.0    5.7
I    -2.7   11.0    3.6
H    -8.7    7.5    3.0
H    -8.0   -5.1    7.1
H     5.0   -0.6   10.8
H     0.6    7.4    9.4
H    -1.3   11.6   -2.6
I     3.2   -7.6   -8.7
H   -11.9    0.7   -1.2
I   -11.2    1.2    4.2
I     7.8   -3.7   -8.4
I    -6.5    9.3    4.0
H     1.5   10.5    5.7
N     4.6    0.9  -11.1
P     5.5    9.0    5.9
N    -4.7    0.9  -11.1
I    -5.1    7.2    8.3
H    -9.5   -7.2   -2.3
H     2.6    6.3   10.0
H     3.7    0.8  -11.5
N   -11.6    1.6   -3.1
C     9.3    3.9   -6.8
H    -4.0    0.2  -11.5
C    -9.3    3.9   -6.8
H    10.3    5.8    3.2
H    10.6    2.8   -5.4
N    -8.9   -5.3    6.5
I     5.7   -9.9    4.3
H   -12.1   -1.5    1.5
H    -5.4   -2.0   10.8
H     0.7   -7.7   -9.5
H     9.3    3.0   -7.5
C    10.1    6.6    2.5
C   -10.8   -5.5   -2.0
N   -10.0   -6.5   -2.8
I    -1.4    9.2    8.0
H     7.8   -9.5    1.1
H   -12.0    2.5   -1.2
H   -10.3   -4.4    5.2
H    -9.8   -3.5    6.7
H    -0.3    6.4   10.6
H    -9.4    3.0   -7.5
H   -10.1    7.0    1.1
I    11.3    3.0    4.2
H    -4.3    1.9  -11.5
P     4.3   -9.7   -6.5
I     8.6    3.1    8.4
H   -10.2    3.8   -6.1
H   -11.9    0.8   -3.6
H    -0.1    8.0   -9.6
I    -2.4    1.0   12.2
C   -12.3    1.6   -1.7
N     1.8    6.3   10.7
I     1.4    0.4  -12.4
H     5.7   -2.3   10.9
H     1.8    5.4   11.2
H   -10.6    6.2    2.5
H   -11.3   -4.9   -2.6
H     5.3    0.2  -11.5
H   -12.4   -0.3    2.6
H     5.0    1.9  -11.5
P    -5.0   -9.7   -6.5
N    10.6    3.7   -6.0
H   -11.9    2.5   -3.6
C    -0.7   -6.7  -10.7
I     1.6   -1.1   12.6
I    12.7    0.5    0.1
H    -9.3    4.8   -7.3
H     0.4   10.6    7.0
H    10.7    4.5   -5.3
I    -2.4   -1.4  -12.5
H     9.4    4.8   -7.3
H    -0.8   -8.5   -9.6
H     7.3  -10.2    2.5
H    -5.6    0.8  -11.5
H    10.9    6.6    1.8
H    10.0    7.5    3.0
N    -0.1   -7.9  -10.1
N     9.8   -5.3    6.5
H     9.1   -5.9    7.0
H     0.1   -6.2  -11.3
I     3.5   -9.3    8.3
N     1.2   11.1    6.5
I    -4.0  -11.6   -4.1
H    -8.8    9.3   -2.3
I     3.9    8.9   -8.7
I     1.1   -3.7  -12.4
H    -0.1   -9.1    9.4
I     7.3   -7.2    8.0
H     1.4    8.8   -9.5
N   -12.8   -1.1    2.0
I     1.6    3.1   12.6
H   -11.5   -6.1   -1.4
H     7.9   10.4   -1.4
H    10.1   -6.0    5.7
I    -6.2   -7.6   -8.7
H     0.7  -12.0   -5.3
P    -4.4   -7.1   10.1
H    -8.5   -9.9    1.8
N     8.1  -10.2    1.8
I    -7.6   -9.7   -4.6
I     7.4    6.6   -8.6
I   -12.3   -1.6   -4.4
H    -0.3   12.1    5.2
P    -4.3    6.4  -10.8
H     9.3   -9.0    3.0
I   -10.3   -1.1    8.2
H     8.6    9.4   -3.4
H    -9.6   -5.9    7.0
N     0.6    8.5  -10.1
I    -1.1  -13.2    0.2
H   -10.7   -7.0   -3.4
P     4.9   -7.1   10.1
H    -9.4   -9.0    3.0
I     4.3   12.6   -0.2
I    -2.6   -9.8   -8.6
I     6.7   11.0    3.6
H    -3.5   11.6   -5.7
I    -3.5    3.9  -12.3
I   -10.6    0.5   -8.2
H   -12.7   -2.4    3.6
I     5.3  -11.6   -4.1
I   -10.0    3.1    8.4
H    -1.5   -7.0  -11.4
P     5.0    6.4  -10.8
I    12.9   -3.9   -0.2
H     1.0    7.9  -10.9
H     1.9    7.1   11.3
I    -3.4   -4.9   12.1
H     2.0   11.4    7.1
I     1.8   12.8   -4.1
I    -5.5    8.9   -8.7
H   -13.4    1.5   -1.9
I    -5.0   12.6   -0.2
H    -2.1    3.4   13.0
H     0.5   -3.4   13.2
H    -6.7    6.3   10.0
H   -13.5   -0.7    1.4
I    11.1   -8.0   -0.5
H    11.4    3.7   -6.6
