         400
 sphere cut out from bulk 
P    -0.6    0.7   -1.8
I     1.9    1.1    0.2
I    -1.5   -1.5    0.3
P    -0.6    0.7    2.6
I    -2.0    2.7    0.3
H     3.3   -1.1   -0.5
H     2.9   -2.1    1.7
H    -0.8   -3.6    1.6
I     1.0   -1.1   -3.8
N     3.9   -2.0   -0.2
I     1.3   -1.3    4.1
H     3.5   -2.8   -0.5
C     3.9   -1.9    1.3
H    -4.2   -1.9   -0.5
H     3.5    2.3   -1.9
H     4.3   -1.0    1.7
H     3.5    2.3    2.3
I    -2.9    0.4   -3.9
I     0.4    3.0   -3.8
N    -0.6   -4.5    2.0
H     0.3   -4.8    1.6
H    -0.6   -3.0   -4.0
H    -4.7   -1.0    1.7
H    -1.0    5.0    0.4
H     4.9   -1.9   -0.5
I    -3.3    0.1    4.1
I     0.2    3.3    4.2
H     0.1    5.1   -1.7
H     0.3   -3.9    3.8
N    -5.1   -2.0   -0.2
H    -4.5   -2.8    1.6
H     4.5   -2.8    1.6
H    -1.3   -5.2    1.6
C     3.9    3.3   -2.2
H     3.3    4.1   -1.9
H    -4.1    3.4   -1.9
C    -5.1   -1.9    1.3
C    -0.6   -4.5    3.5
C     3.9    3.2    2.7
H     3.3    4.1    2.3
H    -1.5   -4.1    3.8
H    -4.1    3.3    2.4
I     2.4   -5.3    0.3
H    -5.7   -1.1   -0.5
N    -0.6    5.9    0.1
H     3.0    3.3   -4.1
N    -1.1   -3.7   -4.5
H     0.4    6.0    0.5
H    -2.1   -3.9   -4.1
C    -0.6    5.9   -1.4
H    -1.6    5.7   -1.7
H     2.9    3.2    4.5
H    -5.5    2.3   -1.9
H    -5.6   -2.8   -0.5
H     5.0    3.4   -1.9
P    -0.6    0.8   -6.2
N     3.9    3.3   -3.7
H    -0.2   -5.3   -3.5
H     4.9    3.3    2.4
C    -5.1    3.3   -2.2
H    -5.5    2.3    2.3
N     3.9    3.2    4.2
H     4.5    2.5   -4.1
H    -4.5    2.5   -4.1
H    -1.2   -3.4   -5.5
C    -5.1    3.2    2.7
H    -6.1   -2.1    1.7
H     4.4    2.4    4.5
H    -0.5   -5.5    3.8
C    -0.3   -5.0   -4.5
H     2.8   -1.9   -5.8
H    -1.1    6.7    0.5
I     3.0    6.1    0.3
H    -4.6    2.4    4.5
H     0.7   -4.8   -5.0
I     5.8    0.1    4.1
N    -5.1    3.3   -3.7
H    -0.2    6.9   -1.7
I     6.1    0.4   -3.9
I    -7.2    1.1    0.2
H     4.3   -0.9   -5.8
H    -5.7    4.1   -1.9
H     4.4    4.2   -4.0
N    -5.1    3.2    4.2
I    -2.7   -6.9    0.4
H    -5.7    4.1    2.3
H     0.4    0.7    7.4
P     3.9   -2.0    6.0
H    -1.1   -0.2    7.4
H    -4.6    4.2   -4.0
I     7.0    2.7    0.3
C     3.9   -1.8   -6.1
H     4.3    4.1    4.5
I    -4.3   -4.9   -3.8
I    -4.4   -4.5    4.1
H    -4.8   -0.9   -5.8
H    -1.1    1.5    7.4
I     7.5   -1.5    0.3
H    -4.7    4.1    4.5
I     4.7   -4.5    4.1
H    -0.9   -5.8   -5.1
H     4.4   -2.7   -5.8
N    -0.6    0.7    7.7
I     4.7   -4.9   -3.8
H     0.0    5.0   -6.0
H    -4.6   -2.7   -5.8
I    -1.4   -2.0   -7.6
H    -6.0    3.3   -4.1
I     2.1    1.3   -7.7
P    -5.1   -2.0    6.0
C    -5.2   -1.8   -6.1
H    -6.1    3.2    4.5
I    -3.5    6.6   -3.8
I     3.1    0.7    7.7
P    -0.6    5.9    5.9
I    -3.4    6.4    4.3
P     4.0   -7.2   -1.7
H    -1.6    5.8   -5.9
I    -6.6   -5.3    0.3
I    -2.4   -2.4    7.8
I    -2.4    2.8   -7.7
I    -6.0    6.1    0.3
C    -0.6    5.9   -6.3
P     3.9   -7.2    2.7
P     8.5    0.7   -1.8
H    -6.2   -1.9   -5.8
H     3.4   -1.0   -8.0
N     3.9   -1.9   -7.6
I    -7.7   -1.3    4.1
I     1.7   -7.8   -3.8
P     8.4    0.7    2.6
I     1.6    7.8   -3.8
H    -0.2   -8.7   -1.7
I     1.2    7.8    4.2
P    -5.0   -7.2   -1.7
I    -8.0   -1.1   -3.8
I     1.3   -7.8    4.2
H     6.9   -3.9   -4.1
I     2.1   -3.9    7.8
H    -1.1   -8.9    0.5
H    -0.1    6.8   -5.9
H     8.2   -3.6    1.6
I    -2.4    3.9    7.9
H     3.4   -2.7   -8.0
H    -4.1   -1.9   -8.0
I    -2.7    8.7    0.4
P    -5.1   -7.2    2.7
C    -0.6    0.6    9.2
H     7.5   -4.1    3.8
I     6.4   -6.9    0.4
I     2.1   -5.1   -7.6
N    -5.1   -1.9   -7.6
I     5.5    6.6   -3.8
P     3.9    8.4   -1.7
H     7.7   -5.2    1.6
H     8.0    5.0    0.4
H     4.9   -1.9   -8.0
H     0.0   -0.2    9.5
I     5.7    6.4    4.3
H     7.4    5.7   -1.7
P     3.9    8.4    2.7
H    -1.0    5.1   -8.1
H     0.5   -9.6    0.5
H    -1.6    0.5    9.5
H    -0.2    1.6    9.6
I     2.0    5.3    7.9
N    -0.5   -9.7    0.1
I    -5.9    0.7    7.7
P    -9.6    0.7   -1.8
N     8.4   -4.5    2.0
H     8.4   -3.0   -4.0
N    -0.6    5.9   -7.8
C    -0.5   -9.7   -1.4
H    -5.6   -1.0   -8.0
N     7.9   -3.7   -4.5
I    -8.7    3.0   -3.8
I     3.0   -9.5    0.3
P    -9.6    0.7    2.6
P    -5.1    8.4   -1.7
H    -8.7   -4.8    1.6
H     0.4    5.9   -8.1
H    -5.6   -2.7   -8.0
H     7.8   -3.4   -5.5
H    -1.5   -9.9   -1.7
C     8.5   -4.5    3.5
P    -5.2    8.4    2.7
P     4.0   -7.2   -6.1
I     3.1    5.9   -7.8
I    -8.8    3.3    4.2
I    -2.3   -6.5   -7.6
P    -0.6   -4.4    9.3
H    -8.7   -3.9    3.8
N     8.4    5.9    0.1
H     7.9    6.7    0.5
H     3.4   -6.3    7.5
I    -3.4   -9.1   -3.8
I    -6.9    1.3   -7.7
H    -8.9    5.1   -1.7
C     8.5    5.9   -1.4
I     6.6   -2.4    7.8
H    -8.6    6.0    0.5
P     8.5    0.8   -6.2
I     6.6    2.8   -7.7
I     9.4    3.0   -3.8
H    -9.8   -3.6    1.6
P    -0.5   -4.5   -9.6
I     2.4   10.3    0.3
H    -1.1    6.8   -8.1
H    -0.1   -8.8   -5.9
H     0.2  -10.5   -1.7
H    -1.3   10.4    1.6
I   -10.5   -1.5    0.3
H     9.4   -4.8    1.6
H     9.1    5.1   -1.7
P     3.9    3.2    9.4
H    -0.9  -10.6    0.4
P    -5.0   -7.2   -6.1
I     9.3    3.3    4.2
I    -3.3   -9.2    4.3
I    10.0   -1.1   -3.8
I     6.3    8.7    0.4
H    -0.5   10.1    3.8
P     3.9    3.3   -9.5
N    -9.6   -4.5    2.0
H     9.3   -3.9    3.8
I    -1.4   -7.2    7.9
H     8.0   -0.2    7.4
H    -8.4   -4.8   -5.0
H     8.8   -5.3   -3.5
H     8.5   -5.5    3.8
H    -9.6   -3.0   -4.0
H    -0.3   10.3   -3.5
I     7.6   -2.0   -7.6
I    10.9    1.1    0.2
H     0.3   10.8    1.6
H     7.9    1.5    7.4
I     6.6    3.9    7.9
C     8.7   -5.0   -4.5
H     7.4    5.8   -5.9
H    -0.9    9.9   -5.1
P     3.9    8.4   -6.1
I    -6.9   -3.9    7.8
C    -9.6   -4.5    3.5
H    -4.1   -7.1    7.5
P    -5.1    3.2    9.4
H     9.4    6.0    0.5
I    10.3   -1.3    4.1
H   -10.0    5.0    0.4
I    -6.0   -9.5    0.3
H    -9.2   -5.3   -3.5
H     8.2   -5.8   -5.1
H     3.4    7.6    7.5
P    -5.1    3.3   -9.5
N    -9.6    5.9    0.1
H    -5.6   -6.3    7.5
N     3.9   -7.1    7.9
N    -0.6   11.1    2.0
I     5.6   -9.1   -3.8
H     8.8    6.9   -1.7
C    -9.6    5.9   -1.4
H    -8.6    0.7    7.4
I    -7.3   -7.8   -3.8
I   -11.1    2.7    0.3
H    -0.9    4.6   10.4
P    -0.6   -9.7    5.9
I    -5.9    5.9   -7.8
I    -7.4    7.8   -3.8
H     4.9   -7.1    7.5
N     8.4    0.7    7.7
P    -9.6    0.8   -6.2
I    -6.9   -5.1   -7.6
H     3.4   -8.0    7.5
C    -9.3   -5.0   -4.5
C    -0.4   10.6   -4.5
C    -0.5   -9.7   -6.3
H    -1.5   -9.9   -5.9
P    -5.1    8.4   -6.1
H   -10.3   -5.2    1.6
H    -9.5   -5.5    3.8
C    -0.6   11.1    3.5
I    -1.5    8.4    7.9
H    -9.2    6.9   -1.7
I     5.7   -9.2    4.3
I     1.3   -2.6  -11.3
H    -0.5   -0.3  -11.7
N   -10.1   -3.7   -4.5
H     0.3    1.3  -11.7
N    -5.1   -7.1    7.9
I    -7.8   -7.8    4.2
I    -7.8    7.8    4.2
I    -7.0    5.3    7.9
P     8.4    5.9    5.9
H    -1.5    1.2  -11.7
I     0.3   -2.2   11.6
H     9.7   -4.8   -5.0
H    -9.0    5.0   -6.0
H   -10.5   -4.1    3.8
H     0.6   10.8   -5.0
H     0.6    5.6   10.5
H     7.9   -8.9    0.5
H     9.1    5.0   -6.0
H     2.9   -2.0   11.4
H     9.4    0.7    7.4
I     6.7   -6.5   -7.6
H    -1.0   -8.8   -8.1
I     1.6    2.6   11.7
C    -0.5    0.7  -12.0
C     8.5    5.9   -6.3
H     7.4    0.5    9.5
I    -2.4    9.1   -7.6
H    -5.7    7.6    7.5
H    -4.2    8.5    7.5
H   -10.3   -3.4   -5.5
H     3.4  -11.5   -1.9
H     0.1  -10.6   -6.0
H   -10.6    5.7   -1.7
I    -4.3   10.7   -3.8
H    -0.9   12.0    1.6
I     1.4    4.0  -11.4
H   -10.2    6.7    0.5
N     3.8    8.5    7.9
H    11.9   -2.1    1.7
I    -4.3    0.7  -11.4
H     4.2   -6.1    9.7
C    -0.4    5.4   11.0
H     3.4  -11.5    2.3
H    -1.3    7.0   10.0
H    -1.6   11.6    3.8
I    -3.5    1.3   11.7
I     4.7   10.7   -3.8
H     0.2   11.7    3.8
H     4.4   -1.0   11.4
I    -6.7   10.3    0.3
H    -5.6   -8.0    7.5
I     4.7    0.7  -11.4
N    -9.6    0.7    7.7
C     3.8   -7.1    9.3
I    -3.3   -4.0  -11.2
H     2.8   -7.2    9.6
H     4.8    8.5    7.5
H    -4.6   -1.0   11.4
H    12.3   -1.1   -0.5
H    -4.8   -6.1    9.7
H     3.3    9.3    7.5
N    -0.5   -9.7   -7.8
H     8.0    5.1   -8.1
H   -11.1   -3.9   -4.1
H   -10.1   -0.2    7.4
C     8.4    0.6    9.2
H    -9.9   -5.8   -5.1
H     8.9   -8.7   -1.7
H     7.5   -9.9   -1.7
N     3.9   -1.9   11.8
H     4.5   -2.8   11.4
I   -12.0    0.4   -3.9
I    11.4   -5.3    0.3
H    -2.1   11.7   -4.1
H    -4.5   -2.8   11.4
H   -10.1    1.5    7.4
I    -4.4   11.1    4.1
H     0.5   -9.7   -8.1
H     8.9    6.8   -5.9
N    -5.2    8.5    7.9
I     4.6   11.1    4.1
P    -9.6    5.9    5.9
N    -1.2   11.9   -4.5
H    -9.2   -8.7   -1.7
H    12.5   -2.8   -0.5
I     3.2   -9.7   -7.8
C    -5.2   -7.1    9.3
H    -9.2    6.8   -5.9
N    -1.2    6.6   10.9
C    -9.6    5.9   -6.3
H    12.5    2.3   -1.9
H    -8.6   -9.6    0.5
H    12.5    2.3    2.3
H     4.5  -11.4   -4.0
N     8.5   -9.7    0.1
N     8.5    5.9   -7.8
I    -3.0   -4.8   11.6
I   -12.3    0.1    4.1
H    -4.6  -11.4   -4.0
H    -5.6  -11.5   -1.9
I    -3.2    5.3  -11.4
N    -5.1   -1.9   11.8
C     8.5   -9.7   -1.4
H    -4.0  -12.2   -1.9
I     5.5    1.3   11.7
H    -0.3    5.1   12.0
I   -10.4   -2.0   -7.6
H     7.7   10.4    1.6
N    12.9   -2.0   -0.2
H    -5.7  -11.5    2.3
H    12.0    3.3   -4.1
I     0.3  -12.4    4.2
H    -6.1   -2.0   11.4
H     2.7    8.4    9.6
H    -9.0   -0.2    9.5
I    -2.0  -13.0    0.3
I     7.6   -7.2    7.9
