         400
 sphere cut out from bulk 
I    -1.5   -0.9    1.3
P    -1.4    1.3   -1.1
I     1.0   -0.7   -2.2
I     1.0    2.8    0.3
P     0.9   -2.9    0.3
I     3.4   -0.9    1.3
P     3.4    1.4   -1.1
H     2.4    2.5    2.5
H    -1.7   -1.0    4.0
I    -3.9   -0.6   -2.1
H    -1.1    3.2    3.1
I    -1.5   -4.4   -1.0
I    -3.9    2.9    0.3
P    -4.0   -2.8    0.2
I    -1.5    2.8   -3.8
H     2.5   -1.4    4.4
N     2.8    2.8    3.4
H     2.2    2.5    4.1
H     0.1    0.5   -5.3
H    -2.3    4.6    1.6
N    -2.4   -1.4    4.7
I     0.9   -4.6    2.9
H     1.9    0.3   -5.2
C    -1.8    4.0    3.5
H    -2.9   -2.2    4.3
H     3.7    2.2    3.6
I     3.4   -4.3   -1.2
I     0.4    1.3    5.5
H    -3.1   -0.6    4.8
H     1.8   -4.4   -3.2
H    -2.7    3.5    3.8
H     0.4   -4.1   -4.2
I     3.5    2.8   -3.9
N    -1.9    5.0    2.5
C     1.1    0.7   -5.8
H    -3.8   -0.6   -4.6
H    -1.0    5.5    2.3
H     2.2    4.8    3.2
C     3.1    4.3    3.3
C     2.8   -1.7    5.3
I     5.9   -0.6   -2.1
H    -1.0   -2.4    5.8
N     1.3   -4.7   -4.1
H    -1.3    4.4    4.4
H     3.8    4.5    2.5
H     0.3    5.5   -3.3
H     1.2    1.7   -6.1
C    -1.7   -1.7    6.0
P     5.8   -2.8    0.2
H    -1.3   -0.8    6.4
I    -4.0   -4.2    3.0
I     5.9    2.9    0.3
P    -6.4    1.4   -1.1
I    -6.4   -0.9    1.3
H     2.4   -3.7    4.9
H     2.1   -1.6    6.1
H    -2.9   -1.3   -5.9
H    -2.9    1.2   -6.0
H     1.9   -4.3   -4.9
N    -3.8   -0.7   -5.6
H     3.9   -3.3    4.5
H     3.7   -1.2    5.6
H    -0.9   -6.4    2.3
N     3.2   -3.2    5.2
H    -2.6    5.8    2.8
H    -3.1    4.5   -4.3
H     1.9    5.3   -4.2
H    -2.9   -4.9   -4.0
H     0.9   -1.1   -6.9
I    -1.2   -3.0   -6.4
N     1.0   -0.1   -7.1
H    -2.4   -6.2    2.8
C     0.9    5.8   -4.2
H     3.6    4.5    4.3
I    -4.5    1.3    5.4
H     0.5   -6.4   -3.3
C    -3.8    0.6   -6.3
H    -2.5   -2.1    6.7
H    -3.9   -5.7   -2.7
H    -6.1    2.2    3.6
C     1.1   -6.1   -4.2
N    -1.8   -6.9    2.5
H     0.3    5.6   -5.1
H    -4.6   -1.3   -5.9
H     6.0   -0.6   -4.6
H     0.2    0.2   -7.7
C    -3.8   -5.5   -3.8
I     5.3    1.3    5.4
H    -4.7    1.1   -6.0
I    -1.7    7.5   -1.0
I     5.8   -4.2    3.0
H    -2.2   -7.3    1.6
H    -4.7    4.5   -4.3
I    -6.4   -4.3   -1.2
H    -4.0    6.2   -2.7
H     1.9    0.0   -7.6
N    -3.9    5.1   -4.5
I     3.6   -3.1   -6.3
H    -6.0    4.5    2.5
H     3.6   -3.5    6.1
H     5.1    1.1   -6.0
I     0.8    7.4    2.9
I    -6.4    2.8   -3.9
H     5.2   -1.3   -5.9
H    -4.7   -5.0   -4.1
H     5.1    4.5   -4.3
H    -5.9   -3.3    4.5
H     2.0   -6.6   -4.2
H     2.3   -7.1    3.2
H     0.5   -6.3   -5.1
H    -7.4    2.5    2.5
H     5.1   -5.0   -4.1
N    -7.0    2.8    3.4
N     6.1   -0.7   -5.6
H     6.7   -0.6    4.8
H     1.7    7.5   -3.2
H    -3.8    0.4   -7.4
I     3.2    7.6   -1.2
H    -6.1   -1.2    5.6
N     1.2    7.3   -4.1
C    -4.0    6.4   -3.8
H     7.0   -2.2    4.3
I     8.4   -0.9    1.3
P     8.4    1.3   -1.1
H    -3.9    5.3   -5.6
C    -6.7    4.3    3.3
H    -3.1    7.0   -4.0
P     0.4    2.8    8.2
H    -7.4   -1.4    4.4
H     6.0   -5.7   -2.7
C     6.0    0.6   -6.3
H    -1.2   -7.5    4.4
H     7.1    3.5    3.8
H     4.0   -7.4    2.5
H     0.3    7.8   -4.2
C    -1.6   -7.9    3.5
H    -6.3    4.5    4.3
I    -2.1    4.7    7.2
N     7.4   -1.4    4.7
H     5.8    6.2   -2.7
H     7.5    4.6    1.6
C    -7.0   -1.7    5.3
C     3.3   -7.7    3.3
C     6.0   -5.5   -3.8
N    -3.8   -6.8   -4.5
N    -6.6   -3.2    5.2
H    -3.0   -7.4   -4.3
I     0.5   -3.4    8.3
N     5.9    5.1   -4.5
I     2.8    4.7    7.2
H    -7.7    2.5    4.1
H     8.1   -1.0    4.0
P     0.8    9.0    0.3
I    -8.9   -0.7   -2.2
H     6.9   -1.3   -5.9
I     1.1   -9.1    0.3
H     6.7    4.5   -4.3
H     1.7    7.6   -4.9
H     6.9    1.2   -6.0
I    -4.2    7.7    3.0
I    -8.8    2.8    0.3
H    -1.0   -8.7    3.1
H     3.7   -7.4    4.3
P    -8.9   -2.9    0.3
H    -6.2   -3.5    6.1
H     6.9   -4.9   -4.0
I    -1.4    1.5   -9.2
I    -6.3   -3.1   -6.3
H    -4.9    7.0   -4.1
H    -3.7   -6.7   -5.6
I     8.3   -4.4   -1.0
H     5.0    7.0   -4.1
C     5.9    6.4   -3.8
H    -7.9    0.3   -5.2
H     6.0    0.4   -7.4
H    -2.6   -8.4    3.8
H    -7.6    4.8    3.2
I     8.4    2.8   -3.8
C     8.1    4.0    3.5
N     7.9    5.0    2.5
H     7.2    5.8    2.8
H    -7.4   -3.7    4.9
H     5.9    5.3   -5.6
H    -8.0   -4.4   -3.2
H    -4.6   -7.4   -4.3
I     1.1    5.4   -8.1
I    -3.8   -9.0    0.3
P    -4.6    2.7    8.2
I    -2.1    1.1    9.5
H    -5.9   -7.4    2.5
H     2.3    8.2    4.9
H     8.7    3.2    3.1
I     3.5    1.6   -9.1
I    -1.3   -9.1   -3.8
P    -4.1    9.1    0.2
H    -7.8   -1.6    6.1
I     2.8    1.2    9.6
H     7.4   -6.2    2.8
I    -4.5   -3.5    8.2
H     5.2   -7.4   -4.3
I     5.7    7.7    3.0
H     2.6   -9.4    2.5
I    -6.6    7.6   -1.2
P     5.3    2.7    8.2
H     7.4   -2.1    6.7
N     6.1   -6.8   -4.5
N     3.0   -9.1    3.4
C     8.1   -1.7    6.0
P    -1.3   -4.5   -9.1
H    -7.9   -4.3   -4.9
H     3.8    8.6    4.5
I     5.3   -3.5    8.2
I    -2.0   -7.2    7.2
I    -3.9    5.4   -8.0
I     1.2   -6.5   -8.1
H    -8.0    5.3   -4.2
I    -8.9   -4.6    2.9
H     2.3   -9.4    4.1
H    -6.1   -7.4    4.3
H     6.8    7.0   -4.0
I     3.6   -9.1   -3.9
C    -8.8    0.7   -5.8
N    -8.5   -4.7   -4.1
H     8.5    4.4    4.4
I     3.0   -7.2    7.2
H     6.1   -6.7   -5.6
H     8.8    5.5    2.3
C    -6.6   -7.7    3.3
N     3.1    8.8    5.2
H     8.5   -0.8    6.4
H    -8.6    1.7   -6.1
H     7.6   -7.3    1.6
P     5.7    9.1    0.2
P    -1.3  -10.6   -1.1
P     3.6   -4.6   -9.1
I     1.2   -3.0  -10.3
H    -7.5   -7.1    3.2
I     6.1   -9.0    0.3
H     8.9   -2.4    5.8
N     8.0   -6.9    2.5
H     6.9   -7.4   -4.3
I    -9.4    1.3    5.5
P    -2.0   -5.0    9.6
H     3.5    8.4    6.1
I    -3.7   -6.5   -8.0
P     1.1    3.2  -10.5
H     3.8   -9.7    3.6
H    -0.5   -0.2   11.0
H    -3.0    9.7    4.3
H    -7.9    0.0   -7.6
I    10.8   -0.7   -2.2
H    -9.7    0.5   -5.3
I    -1.3    8.9   -6.4
H    -9.4   -4.1   -4.2
H    -7.8   -6.6   -4.2
H     1.2   -0.4   11.0
I    -7.0    4.7    7.2
I     8.2    7.5   -1.0
H    -1.1    9.5    5.8
I     8.6   -3.0   -6.4
P    10.8   -2.9    0.3
I    -1.6   11.0    1.3
I    10.8    2.8    0.3
P     3.6  -10.6   -1.1
I    -6.3    1.6   -9.1
H     8.9   -6.4    2.3
P     2.9   -5.0    9.6
H    10.0    0.5   -5.3
N    -8.8   -0.1   -7.1
I     6.0    5.4   -8.0
H    -9.0   -1.1   -6.9
P   -11.3    1.3   -1.1
I     3.4    8.8   -6.3
H    -6.0    8.6    4.5
I   -11.3   -0.9    1.3
C    -8.9    5.8   -4.2
H    -9.5    5.5   -3.3
I     0.8   11.3   -2.2
C    -8.8   -6.1   -4.2
I    -3.8   -3.0  -10.4
H    -8.2    7.5   -3.2
I     3.3   11.0    1.3
I     7.7    4.7    7.2
P    -3.8    3.1  -10.5
N     0.3   -0.5   11.6
H     2.3   10.5    4.4
I    -6.2   -9.1   -3.9
H     7.2   -8.4    3.8
I    10.3    1.3    5.5
I     0.3    5.0   10.6
H    -1.9   10.9    4.0
N    -2.6   10.5    4.7
H   -10.9    3.2    3.1
H    10.3   -4.1   -4.2
P    -1.4    7.4   -9.1
C     2.7   10.2    5.3
H    -9.4   -6.4   -3.3
H     0.2   -1.5   11.8
N    -6.8   -9.1    3.4
P    -6.2   -4.6   -9.1
I     0.6  -10.6    5.5
H     1.3  -10.2   -6.1
I     0.4    8.5    8.3
I    -7.0    1.2    9.6
H    -6.0   -9.7    3.6
C     8.2   -7.9    3.5
C    -1.9   10.2    6.0
P    -2.1    6.9    9.6
I     6.1   -6.5   -8.0
H    10.2    5.5   -3.3
I    10.7   -4.6    2.9
N    -8.7    7.3   -4.1
I    -9.1    7.4    2.9
H     1.9   10.3    6.1
H    -9.5    5.6   -5.1
H    -8.1    7.6   -4.9
H    -7.3   -9.4    2.5
H    -2.6    9.8    6.7
P     3.5    7.3   -9.1
P     2.8    6.9    9.6
H    -6.3    8.4    6.1
H    -4.6   -0.0   11.3
H    -7.6    8.2    4.9
I    -4.1   11.3   -2.1
N    -6.8    8.8    5.2
I   -11.4   -4.4   -1.0
I   -11.3    2.8   -3.8
H    -1.8   -1.7  -12.0
H     8.7   -7.5    4.4
I    -6.9   -7.2    7.2
P     0.5   -9.1    8.2
H   -11.6   -1.0    4.0
H    -9.6    0.2   -7.7
I     7.8    1.1    9.5
P    -6.2  -10.6   -1.1
H    -0.6   -0.3  -12.3
C    10.9    0.7   -5.8
H    -9.3   -6.3   -5.1
H   -10.9    5.5    2.3
I     6.0   -3.0  -10.4
P     6.0    3.1  -10.5
H     5.3   -0.0   11.3
H   -10.8   -2.4    5.8
H    -3.1   10.6   -5.9
H     0.3  -11.4   -5.3
I    -8.7   -9.1    0.3
H    10.3   -6.4   -3.3
I     8.5    1.5   -9.2
H     6.8    9.7    4.3
I    -4.6    5.0   10.7
I    -6.4    8.8   -6.3
H    -2.8  -10.7   -6.0
I    -1.4    5.1  -11.5
H     3.6   10.8    5.6
H    10.1    0.2   -7.7
I    -4.7    8.4    8.2
H    10.2    5.6   -5.1
H     0.5    1.3   12.6
C     1.2  -11.2   -5.8
H    11.0    1.7   -6.1
H    -7.5   -9.4    4.1
I     0.5   -6.9   10.6
H    -3.3   11.3    4.8
H   -10.7   -6.4    2.3
I    -4.4  -10.6    5.4
H    12.2    2.5    2.5
C   -11.6    4.0    3.5
N    11.1   -4.7   -4.1
H   -11.1    4.4    4.4
P    -9.0    9.0    0.3
H    10.7   -1.1   -6.9
H    -3.9   11.3   -4.6
I     1.1  -12.6   -2.2
C    -1.0   -1.3  -12.7
H     8.9   -8.7    3.1
H     0.7   10.8   -6.9
P    -9.5    2.8    8.2
H   -11.1   -0.8    6.4
I     5.8   11.3   -2.1
H    11.8    0.3   -5.2
C     0.4    0.2   12.9
I     5.2    8.4    8.2
I     5.3    5.0   10.7
P    -6.9   -5.0    9.6
H     2.1  -11.6   -5.2
H    11.7   -4.4   -3.2
I     7.9   -7.2    7.2
I    -1.9   -3.4   12.3
I    -6.6   11.0    1.3
C    10.7    5.8   -4.2
H    -1.4   11.1    6.4
H    12.0    2.5    4.1
H     2.8   -1.2  -12.6
N    10.9   -0.1   -7.1
I    -1.3  -12.8    1.3
I    -9.3   -3.4    8.3
H    -4.7   10.6   -5.9
H    -9.6    7.8   -4.2
I     8.5   -9.1   -3.8
N   -11.8    5.0    2.5
