         400
 sphere cut out from bulk 
H     0.4    0.3   -0.2
N     1.1   -0.1    0.4
H     0.8    0.3    1.4
C     1.1   -1.6    0.4
H     2.0    0.2    0.2
H     0.1   -2.0    0.8
H     1.2   -2.0   -0.6
I    -1.1    1.4   -1.8
H     1.8   -2.0    1.1
H    -2.9    0.3    2.2
I     0.1    1.4    3.4
I    -2.8   -2.5    0.4
P    -3.4   -0.8   -2.2
H     1.6    0.4   -3.8
I     4.1    1.4   -0.3
C    -3.5    0.6    3.0
H    -2.6    2.4    3.2
H     0.4    2.5   -4.0
I     3.1   -2.5   -2.9
H     0.1    0.3   -4.9
C     1.1    0.7   -4.8
I    -1.5   -2.4   -4.1
H    -3.1    0.2    4.0
H    -3.9    2.4    2.2
N    -3.5    2.1    3.1
I    -5.0    1.4   -0.3
N     1.1    2.2   -4.8
I     3.0   -2.4    3.8
H    -4.5    0.2    2.9
H     4.6    0.2    2.9
P    -3.5    3.7   -2.2
H     0.0    5.6   -0.1
H     2.0    2.6   -4.7
I    -1.6   -2.4    5.0
H    -2.6   -5.0   -1.3
H     1.1    5.5    1.4
P     1.0   -0.8    5.7
H     1.8    0.4   -5.6
H     1.8    5.6   -0.2
I    -2.8    5.2    0.5
C     1.0    5.9    0.4
H    -4.1    2.4    3.9
H     5.2    2.4    2.2
P     5.7   -0.8   -2.2
H     0.7    2.5   -5.7
P    -3.5   -4.2    3.1
I    -4.3    1.4   -4.5
C     5.6    0.6    3.0
P     1.1   -4.1   -4.9
H    -2.7   -5.2   -3.1
H     6.2    0.3    2.2
H     4.3   -4.6   -2.2
C    -3.0   -5.6   -2.1
I     4.8    1.4   -4.5
N     5.6    2.1    3.1
I     3.0    5.2   -2.9
H     5.0    2.4    3.9
I     6.3   -2.5    0.4
P     1.0    3.7    5.7
I    -1.5    5.3   -4.1
I     0.5   -6.4   -2.5
H     1.4   -4.9    4.7
H    -4.8   -4.6   -2.2
I     3.4    1.4    6.0
I    -1.1   -6.5    2.7
I     2.9    5.3    3.7
P     5.6    3.7   -2.2
H    -7.1    0.2    0.2
I    -6.0   -2.5   -2.9
H     6.0    0.2    4.0
H    -2.6   -6.6   -2.0
I    -1.7    5.3    5.0
N    -4.5   -5.6   -2.1
H     4.3   -6.0   -1.2
N     1.0    7.4    0.5
H    -3.7    0.3   -6.5
H    -2.7   -2.0   -6.8
N     4.7   -5.6   -2.1
I    -6.1   -2.4    3.8
H     0.0   -4.9    5.8
P     5.6   -4.2    3.1
H    -7.3   -2.0    1.1
I     4.0   -6.4    1.2
H     6.6    2.4    3.2
H     0.8   -7.6   -0.5
I    -0.5    1.4    7.6
H    -4.8   -6.0   -1.2
H     0.3   -7.7    1.1
C     1.0   -5.3    5.7
H     0.3    7.8    1.1
H     0.8    7.9   -0.5
H     1.9   -7.7    0.8
H     4.3   -6.1   -2.9
I     1.8   -2.4   -7.4
N    -8.0   -0.1    0.4
H     1.9    7.8    0.8
H    -2.5    0.3   -7.7
H    -7.9   -2.0   -0.6
N     1.0   -8.1    0.5
I     6.3    5.2    0.5
N    -3.5   -0.1   -7.5
H    -3.3   -2.0    7.3
C    -8.1   -1.6    0.4
H     1.7   -4.9    6.5
I    -0.4    1.4   -8.2
I    -5.1   -6.4    1.2
H     6.5   -5.0   -1.3
P    -3.6    6.9    3.1
H    -4.9   -6.1   -2.9
C    -3.5   -1.6   -7.4
I     8.1    1.4   -1.8
I    -5.7    1.4    6.0
H    -8.3    0.3    1.4
H    -2.6    0.3    8.0
H    -7.6    0.4   -3.8
H     5.4    0.3   -6.5
P     1.1    6.9   -4.8
C     6.1   -5.6   -2.1
I    -6.1    5.2   -2.9
H    -4.4   -2.0   -7.1
H     0.5   -7.1    4.9
H    -4.2    0.3    7.6
H     4.7   -2.0   -7.1
H    -8.7    0.3   -0.2
I     1.7   -2.4    8.3
H     6.5   -5.2   -3.1
N     1.0   -6.8    5.7
H    -7.1    2.6   -4.7
N    -3.5   -0.1    8.3
I     7.6   -2.4   -4.1
I    -6.2    5.3    3.7
I     3.5   -6.4   -5.3
H     4.9    0.3    7.6
H    -3.3    5.7   -6.4
H    -4.1    0.3   -8.1
C    -3.5   -1.6    8.3
H    -7.3    5.6   -0.2
H     2.0   -7.1    5.6
H    -7.3    0.4   -5.6
I    -0.4   -6.4   -6.7
H    -3.3   -2.0   -8.5
H    -9.1   -2.0    0.8
I     1.8    5.3   -7.5
C    -8.0    0.7   -4.8
P     5.5    6.9    3.1
I     7.5   -2.4    5.0
N     5.7   -0.1   -7.5
H     9.2   -2.0    0.8
I    -4.4   -6.4    5.3
H    -2.7    8.9   -2.0
C     5.7   -1.6   -7.4
H     5.8   -2.0    7.3
I     0.5    9.1   -2.5
H     6.5   -6.6   -2.0
I    -1.2    9.1    2.7
H     9.5    0.3   -0.2
H     5.0    0.3   -8.1
H     6.5   -2.0   -6.8
H    -2.7   -2.0    9.0
I     4.7   -6.4    5.3
C     1.0   -9.6    0.4
N    -8.1    2.2   -4.8
H     0.7   -7.1    6.6
I    -9.0    1.4    3.4
H     0.4    8.4    4.9
P    -3.6   -8.6    3.1
H    -8.1    5.5    1.4
H    -8.7    2.5   -4.0
H     0.1   -9.9   -0.1
P    -8.1   -0.8    5.7
H    -2.7    5.6    7.7
P     1.1   -8.6   -4.8
H    -4.5   -2.0    8.6
H    -3.8    0.3    9.2
I     1.7    5.3    8.3
I     9.3    1.4    3.4
N     5.6   -0.1    8.3
I     4.0    9.1    1.2
H     4.6   -2.0    8.6
I    -5.6   -6.4   -5.3
H    10.0    0.3    1.4
H     1.9   -9.9   -0.2
C    -8.1    5.9    0.4
C    -3.5    6.0   -7.4
H    -2.6    5.6   -8.0
H     1.1  -10.0    1.4
C     5.6   -1.6    8.3
I     7.6    5.3   -4.1
H     6.6    0.3   -7.7
P     1.1   -0.8  -10.1
N    10.2   -0.1    0.4
H    -9.0    0.3   -4.9
H     1.7    0.3   10.1
P    -8.0   -4.1   -4.9
H    -7.7   -4.9    4.7
H     5.8    5.7   -6.4
H     2.0    8.4    5.6
C    10.2   -1.6    0.4
H     0.6    2.5   10.0
H     6.5    0.3    8.0
I     7.5    5.3    5.0
I     3.5    1.4   -9.7
I   -10.2    1.4   -1.8
H     5.8   -2.0   -8.5
N     1.0    8.8    5.7
H     9.3    0.3   -4.9
H    -8.5    2.5   -5.7
H     4.3    9.5   -1.2
I    -5.1    9.1    1.2
P    -8.1    3.7    5.7
H    10.4   -2.0   -0.6
C    -3.0    9.9   -2.1
H    -7.2   -7.7    0.8
H    -4.4    5.6   -7.8
I     8.0   -6.5    2.7
H     1.8   -4.9   -9.3
H     5.3    0.3    9.2
I    -2.8  -10.3    0.5
H    -7.2    7.8    0.8
H    -9.1    5.6   -0.1
H     9.6    2.5   -4.0
H     4.2    9.4   -2.9
H     4.7    5.6   -7.8
I    -7.3   -2.4   -7.4
H    -4.5    5.6    7.9
P     5.6   -8.6    3.1
H     0.6    8.4    6.6
H    -4.8    9.5   -1.2
H     9.2    5.6   -0.1
H    -2.5   -7.6   -7.2
P     1.1    3.7  -10.1
H     4.6    5.6    7.9
H     0.1    0.3   10.8
C    -3.5    6.0    8.3
H    -2.6   10.5   -1.3
H    -2.5    7.9   -7.2
H    -4.9    9.4   -2.9
H    -7.4   -4.9    6.5
H    -4.1   -7.6   -6.8
C     1.1    0.7   10.9
I    -8.6   -6.4   -2.5
N    -8.1    7.4    0.5
H     0.1   -4.9   -9.9
C     5.7    6.0   -7.4
N    -4.5    9.9   -2.1
N    -3.4    7.5   -7.4
I    -0.5   -6.4    9.0
I     3.0  -10.3   -2.9
H    -2.7   10.3   -3.1
I     3.5    9.1   -5.3
I    -1.5  -10.2   -4.1
N     4.6    9.9   -2.1
I    -1.5   -2.4  -10.8
H    11.1    0.2    0.2
H     6.5    8.9   -2.0
H     6.4   -2.0    9.0
N     1.0    2.2   10.9
C    -8.1   -5.3    5.7
H    11.0   -2.0    1.1
H    -4.1    7.9   -6.8
I     2.9  -10.2    3.7
H    -3.7   -7.7    7.4
H    -8.3   -7.6   -0.5
I    -5.6    1.4   -9.7
I    -0.4    9.1   -6.7
C    10.3    0.7   -4.8
H    10.7    0.4   -3.8
H     5.0   -7.6   -6.8
I    -7.4   -2.4    8.3
H    -3.7    7.8    7.4
C     1.1   -5.3  -10.1
I    -4.5    9.1    5.3
H    -3.4    5.6    9.4
H    -7.1   -7.1    5.6
N    -8.1   -8.1    0.5
N    10.2    2.2   -4.8
H    -8.3    7.9   -0.5
N    -3.4   -8.0   -7.4
H     6.4    5.6    7.7
H     1.9    2.6   11.0
I    -1.6  -10.2    5.0
I     4.7    9.1    5.3
H     5.0    7.9   -6.8
H     0.7   -7.1   -9.1
I     8.6    1.4    7.6
H     9.8    2.5   -5.7
P    -8.0    6.9   -4.8
I   -10.6   -2.4   -4.1
P     1.0   -4.1   10.8
H     1.4   10.6    4.7
P    10.2   -0.8    5.7
C     5.6    6.0    8.3
H    10.2    5.5    1.4
N    -3.5    7.5    8.3
H     6.5    5.6   -8.0
C    10.1    5.9    0.4
I    -7.3    5.3   -7.5
C     1.0   10.2    5.7
H    -2.6   -7.7    8.6
H    -8.8   -7.7    1.1
I     9.6   -6.4   -2.5
C     6.1    9.9   -2.1
H    -8.9    7.8    1.1
H    -9.1   -4.9    5.8
H     4.3   10.9   -2.2
H    -2.6    7.9    8.6
H     9.1   -4.9    5.8
H    -3.6   -7.7   -8.4
H     5.4   -7.7    7.4
I    -5.6    9.1   -5.3
N    -8.1   -6.8    5.7
H     0.4    2.5   11.7
N     5.7    7.5   -7.4
H     1.5    0.3   11.9
I    -1.6   -2.5   11.7
I     8.7    1.4   -8.2
H     5.4    7.8    7.4
I   -10.7   -2.4    5.0
P    10.2   -4.1   -4.9
H    -3.7    7.8   -8.4
I    -1.6    5.3  -10.7
N    -3.5   -8.1    8.3
H    -0.0   10.6    5.8
I     6.3  -10.3    0.5
H    -4.9   10.9   -2.2
H    -3.0    0.2  -11.7
N     1.1   -6.7  -10.1
I    -4.4    1.4   11.3
P    10.1    3.7    5.7
H     1.5   -4.9  -11.0
H    -3.3   -9.9   -6.4
H   -12.0    0.3    2.2
H     9.4   -7.7    1.1
I   -12.0   -2.5    0.4
H    -8.7   -7.1    4.9
H     9.4    7.8    1.1
H    -7.3   -9.9   -0.2
H    10.9    0.4   -5.6
P    -3.6   11.4    3.1
I     4.7    1.4   11.3
I    -7.4    5.3    8.3
I    -6.1  -10.3   -2.9
H    11.0    5.6   -0.2
I    -9.6    1.4    7.6
H     5.7    5.6    9.4
H   -11.7    2.4    3.2
H    11.1    2.6   -4.7
N     5.7   -8.0   -7.4
I     8.0    9.1    2.7
H    -7.1    8.4    5.6
H     6.6   -7.6   -7.2
I     0.2    1.4  -12.3
H     6.5   10.5   -1.3
I   -10.3   -6.5    2.7
P     1.1   11.4   -4.9
H     0.7    8.4   -9.1
H    -4.2   -7.6    8.9
P    -3.5  -11.8   -2.2
N     5.6    7.5    8.3
I    -6.2  -10.2    3.7
H     1.7   10.6    6.5
H     6.6    7.9   -7.2
I   -10.6    5.3   -4.1
H    10.5   -4.9    4.7
C    -3.4   -9.5   -7.4
H    -7.4    0.3   10.1
N    10.1    7.4    0.5
H    10.0   -7.6   -0.5
C    -8.1   -9.6    0.4
H     6.4   10.3   -3.1
H     2.1   -7.1  -10.2
I     3.1   -2.4  -12.0
H     5.5   -7.7   -8.4
H    -4.2    7.9    8.9
I    -9.6    1.4   -8.2
H     9.9    7.9   -0.5
P    -8.0   -8.6   -4.8
I     3.5   -6.4   10.4
H     5.5    7.8   -8.4
I     8.7   -6.4   -6.7
I     1.8  -10.2   -7.5
H     5.0   -7.6    8.9
C    10.2   -5.3    5.7
H    -4.0    2.4  -11.9
P   -12.6   -0.8   -2.2
I    12.2   -2.5   -2.9
H    -7.4   -4.9   -9.3
H   -11.7   -5.0   -1.3
I    -0.5    9.1    9.0
H    -8.5   -7.1    6.6
I    -8.7    9.1   -2.5
I    -1.6    5.3   11.6
H    -2.7   -9.9    7.7
H   -12.2    0.2    4.0
N     5.6   -8.1    8.3
H    -8.0  -10.0    1.4
H     9.6   -7.1    4.9
P    -8.0   -0.8  -10.1
H     4.9    7.9    8.9
I    12.1   -2.4    3.8
