         400
 sphere cut out from bulk 
I    -0.2   -0.9   -0.0
P     1.7    1.7   -0.0
H     0.9   -2.4   -1.8
H    -1.2    1.2    2.9
H     0.6   -2.4    2.7
I    -0.9    3.7   -0.1
H    -2.4    0.1    2.9
I     1.5    1.8    3.2
P    -2.8   -2.7   -0.0
H    -1.6    1.7   -3.3
N    -2.1    1.0    3.3
I     1.8    1.8   -3.2
N     1.3   -3.2   -2.3
H     2.0   -1.6    3.4
H    -3.2    2.2    1.9
I     4.3   -0.1   -0.0
H    -3.6    0.7   -2.3
H     2.1   -3.5   -1.8
C     1.4   -2.4    3.5
H     0.5   -3.9   -2.3
I    -4.7   -0.1   -0.0
H    -2.7    2.9   -2.5
C    -2.6    2.2   -3.3
C    -3.1    2.1    3.0
H     2.4   -2.0   -3.7
H    -2.0    0.8    4.3
H     0.7   -2.4   -4.2
C     1.6   -2.7   -3.7
I    -2.8   -2.7    3.2
I    -2.8   -2.7   -3.2
N    -3.7    1.2   -3.2
H     2.7   -3.7    2.4
H     0.9   -2.5    4.5
H    -2.8    3.0    3.4
I    -0.9   -5.3   -0.1
H    -3.7    0.6   -4.0
N     2.2   -3.7    3.4
H    -4.1    1.8    3.4
H     0.6    5.1   -2.3
I     3.5    4.4    0.1
H     4.4    1.7   -3.2
H    -2.7    2.8   -4.3
I     3.5   -4.6    0.1
H    -4.6    1.7   -3.2
H     5.4    0.7   -2.3
H     1.7    4.5    3.4
H     1.6   -4.5    3.4
H     1.9   -3.6   -4.3
H     2.1    5.5   -1.8
H     4.9    1.8    3.4
H     2.9   -3.7    4.1
N     5.3    1.2   -3.2
N     1.3    5.8   -2.3
H     2.7    5.3    2.4
I    -0.9   -0.2    6.4
H     5.8    2.2    1.9
H     5.3    0.6   -4.0
I    -0.3   -0.7   -6.6
N     2.3    5.3    3.4
P     6.2   -2.7   -0.0
P    -2.8    6.2   -0.0
P     1.7    1.7    6.4
P     1.7    1.8   -6.4
C     5.9    2.1    3.0
H     0.9    6.6   -1.8
I    -5.4    4.4    0.1
H    -2.7   -6.1   -2.5
H     0.7    6.6    2.7
H     2.0    5.4   -4.3
I    -5.5   -4.6    0.1
H     6.6    0.1    2.9
H     3.0    5.3    4.1
I     3.6   -0.8    6.4
H     6.3    2.9   -2.5
I     6.2   -2.7    3.2
H    -2.8   -6.0    3.4
C     1.6    6.3   -3.7
P     1.6   -7.3   -0.0
P    -2.8   -2.8   -6.4
I    -0.8    3.7   -6.4
I     6.2   -2.7   -3.2
P    -7.3    1.7   -0.0
P    -2.8   -2.8    6.4
C     6.4    2.2   -3.3
I    -2.7    6.3   -3.2
C     1.4    6.6    3.5
I    -2.7    6.3    3.2
I     4.3   -0.2   -6.3
N     6.9    1.0    3.3
H    -6.3   -3.7    2.4
H     6.2    3.0    3.4
I    -0.3    4.3    6.5
H    -3.2   -6.8    1.9
H    -6.6   -2.0   -3.7
H     0.7    6.6   -4.2
I    -4.7   -0.2   -6.3
H    -7.0   -1.6    3.4
H    -6.9   -3.5   -1.8
C    -2.6   -6.8   -3.3
H     0.9    6.5    4.5
I     1.4   -7.2    3.2
I    -0.3   -4.7    6.5
H    -2.7   -6.2   -4.3
I     1.7   -7.2   -3.2
I    -7.2    1.8   -3.2
H     6.3    2.8   -4.3
I    -0.1    8.1   -0.0
H    -1.6   -7.3   -3.3
C    -3.1   -6.9    3.0
H    -6.1   -3.7    4.1
H     7.0    0.8    4.3
H     7.4    1.7   -3.3
H     2.4    7.0   -3.7
I     4.2    3.7    6.2
I    -0.8   -5.3   -6.4
I    -7.5    1.8    3.2
I    -5.4   -0.8    6.4
H    -1.2   -7.8    2.9
N    -6.8   -3.7    3.4
H     7.8    1.2    2.9
H     2.1    7.4    3.4
H    -6.2    5.3    2.4
I     3.7    4.3   -6.4
H    -8.1   -2.4   -1.8
N    -7.7   -3.2   -2.3
I    -4.8    3.7    6.2
C    -7.4   -2.7   -3.7
C    -7.6   -2.4    3.5
I     3.6   -4.7   -6.4
P     6.2    6.2   -0.0
H    -1.5    0.8   -8.7
I     8.8   -0.9   -0.0
I     8.1    3.7   -0.1
H     1.7   -1.8    8.5
N    -2.2   -8.0    3.3
H    -6.9    5.5   -1.8
H    -2.6    0.8    8.5
H    -4.1   -7.2    3.4
H    -7.0   -3.6   -4.3
H    -6.0    5.3    4.1
H     6.3   -6.1   -2.5
H     4.3   -7.3   -3.2
I     4.1   -5.3    6.2
H    -8.4   -2.4    2.7
H     5.8   -6.8    1.9
N    -3.7   -7.8   -3.2
I    -9.2   -0.9   -0.0
H    -7.3    4.5    3.4
N    -6.7    5.3    3.4
H    -4.6   -7.3   -3.2
H     6.2   -6.0    3.4
H    -7.3   -4.5    3.4
H    -3.5    2.1   -8.3
P     6.1   -2.8    6.4
P     6.2   -2.8   -6.4
P    -2.7    6.2   -6.4
H     4.9   -7.2    3.4
H    -3.7   -8.3   -2.3
P    -2.8    6.2    6.4
I    -5.3    4.3   -6.4
I     6.3    6.3   -3.2
I     6.2    6.3    3.2
I    -4.8   -5.3    6.2
H    -2.1   -8.2    4.3
C     5.8   -6.9    3.0
H     2.5   -3.6   -8.5
I    -5.3   -4.7   -6.4
H    -8.1   -2.5    4.5
H    -8.4   -3.9   -2.3
H    -8.3   -2.4   -4.2
H     1.8   -1.5   -9.4
I     8.1   -5.3   -0.1
H    -3.8    2.1    8.6
H    -2.5   -8.9    2.9
H    -2.2    2.5    9.1
C    -2.9    1.7    9.1
H     0.8   -4.0    8.8
N    -2.2    0.9   -9.4
H    -2.8    0.0   -9.4
H     0.4   -2.7   -9.4
H    -7.0    5.4   -4.3
P     1.7   -7.2   -6.4
H    -2.4    9.1    2.9
H     6.3   -6.2   -4.3
P    -7.3    1.8   -6.4
P     1.6   -7.3    6.4
C     6.4   -6.8   -3.3
P    -7.3    1.7    6.4
I    -0.2   -9.9   -0.0
N     5.3   -7.8   -3.2
I     1.7    1.8    9.6
I     4.4    8.9   -0.0
N    -7.7    5.8   -2.3
C     1.9   -2.3    9.5
I     1.8    1.9   -9.6
H    -0.2   -2.9    9.6
C    -3.1    2.1   -9.3
I    -4.6    8.9   -0.0
H    -3.7   -8.4   -4.0
I     4.3   -9.1   -0.0
H    -8.4    5.1   -2.3
H     5.3   -8.3   -2.3
H    -2.4    3.0   -9.4
H     5.4    2.1   -8.3
H     0.8    5.0    8.8
N     0.8   -3.3    9.6
C     1.4   -2.4   -9.8
I    -4.7   -9.1   -0.0
H     5.1    2.1    8.6
H     9.6   -2.4    2.7
H     9.9   -2.4   -1.8
H    -6.6    7.0   -3.7
I     8.1   -0.2    6.4
H     2.8   -2.8    9.5
C    -7.4    6.3   -3.7
P    -7.4   -7.3   -0.0
H     2.5    5.4   -8.5
I    -2.8   -2.7    9.6
N     2.4   -3.5   -9.5
I    -3.0   -2.7   -9.6
I    -9.9    3.7   -0.1
H    -1.7    0.8  -10.4
H     9.5   -3.9   -2.3
H    -8.1    6.6   -1.8
H     1.8   -1.6   10.3
H    -3.6    9.7   -2.3
I    -0.2    8.3   -6.6
C    -7.6    6.6    3.5
H   -10.2    1.2    2.9
I    -7.2   -7.2   -3.2
H    -1.1   10.2    2.9
H     6.4    0.8    8.5
N    -2.1   10.0    3.3
H    -6.9    7.4    3.4
H     5.3   -8.4   -4.0
P    10.6    1.7   -0.0
H     9.7   -2.4   -4.2
P     1.7   10.7   -0.0
H     7.3   -7.3   -3.3
P     6.2    6.2    6.4
P     6.2    6.2   -6.4
I    -0.8    8.8    6.4
H     3.3   -3.2   -9.9
I    -7.6   -7.2    3.2
H    -2.0    9.8    4.3
H    -8.3    6.6    2.7
H    -3.6    9.6   -4.0
I     8.7   -0.7   -6.6
N    10.2   -3.2   -2.3
H    -3.8    2.1  -10.1
I     3.7    8.2    6.4
N     6.8   -8.0    3.3
H     2.1   -4.4   -9.9
C     6.1    1.7    9.1
N    -3.3    1.3   10.5
I     8.2    3.7   -6.4
I    10.4    1.8    3.2
H     9.6    5.1   -2.3
H     9.9   -2.5    4.5
H     2.1    4.6   -9.9
C    10.4   -2.4    3.5
N     0.8    5.7    9.6
H     0.8   -3.8   10.5
H   -10.6    1.7   -3.3
H     1.3   -2.3  -10.9
C     5.9    2.1   -9.3
H     6.2    0.0   -9.4
H    -4.0    0.6   10.5
I    -0.9   -9.2    6.4
I    -9.9   -5.3   -0.1
H     2.0  -10.6    3.4
N     2.4    5.5   -9.5
H    -6.5   -3.6   -8.5
H    -2.4    0.9   11.0
H    -1.6   10.7   -3.3
H    -8.1    6.5    4.5
N    -3.6   10.2   -3.2
H     1.8    7.2    8.5
H    -7.2   -1.8    8.5
H     5.4    9.7   -2.3
I     1.5   10.8    3.2
H     0.5    6.3   -9.4
H     7.8   -7.8    2.9
I    10.8    1.8   -3.2
H    -0.1    6.1    9.6
H    -3.6   -6.9   -8.3
H    -8.3    6.6   -4.2
H    -2.2   -6.5    9.1
I     1.8   10.8   -3.2
H    -2.5   -6.0   -9.4
I    -9.3   -0.7   -6.6
H     6.5   -8.9    2.9
H     7.5    0.8   -8.7
H     0.8  -11.4   -1.8
H     6.9   -8.2    4.3
H     5.2    2.1  -10.1
C    10.6   -2.7   -3.7
H     6.6    9.1    2.9
H    11.0   -1.6    3.4
N   -11.1    1.0    3.3
I     8.1   -5.3   -6.4
H     5.0    0.6   10.5
I     6.0   -2.7   -9.6
N     6.8    0.9   -9.4
H     6.8    2.5    9.1
H     5.4    9.6   -4.0
I    -5.3    8.2    6.4
I     4.3    8.8   -6.3
I     8.7    4.3    6.5
H    -3.9   -6.9    8.6
H    -6.2   -2.8    9.5
H     2.9    6.2    9.5
H     0.8    5.2   10.5
H    11.1   -3.5   -1.8
H    -3.1   11.2    1.9
I    -9.9   -0.2    6.4
I     6.2   -2.7    9.6
H   -11.4    0.1    2.9
H     0.6  -11.4    2.7
C     1.9    6.7    9.5
I    -0.3   -9.7   -6.6
H     2.3  -11.0   -3.7
I    -2.7    6.3    9.6
H    -3.6    2.1   11.0
I    -4.7    8.8   -6.3
I     8.7   -4.7    6.5
H    -5.6   -3.2   -9.9
H   -11.0    0.8    4.3
H     6.6    3.0   -9.4
C    -3.1   11.1    3.0
I    -3.0    6.3   -9.6
H    -7.2   -1.5   -9.4
H     3.4    5.8   -9.9
I     4.2   -9.2   -6.3
C     1.4    6.6   -9.8
H    -6.4    5.4   -8.5
H     9.6    6.6    2.7
C    -2.5   11.2   -3.3
N     5.4   10.2   -3.2
C    -3.1   -6.9   -9.3
H     4.4   10.7   -3.2
H    -4.0   10.8    3.4
I     8.9    8.1   -0.0
C    -3.0   -7.3    9.1
N     5.7    1.3   10.5
H    -1.5   -8.2   -8.7
C     1.3  -11.4    3.5
H    -4.6   10.7   -3.2
H    10.6   -4.5    3.4
N    10.3    5.8   -2.3
H     9.9    6.6   -1.8
I    -9.2    4.3    6.5
H    10.7    4.5    3.4
N    -6.6   -3.5   -9.5
P    -2.9  -11.7   -0.0
C    -7.1   -2.3    9.5
H    11.3   -2.0   -3.7
H    -2.6   -8.2    8.5
H     5.4   -6.9   -8.3
I     1.7   -7.1   -9.6
H     0.6  -11.3   -4.2
P    -7.3   -7.2   -6.4
P   -11.8   -2.7   -0.0
I    -4.8   -9.2   -6.3
I     1.7   -7.2    9.6
H     5.1   -6.9    8.6
H     1.8    7.5   -9.4
I    -7.2    1.9   -9.6
P    -7.3   -7.3    6.4
I    -7.3    1.8    9.6
I    -9.1    8.1   -0.0
C   -11.6    2.2   -3.3
I     3.6   -9.8    6.4
N    11.2   -3.7    3.4
H   -11.6    2.9   -2.5
I    -9.3   -4.7    6.5
H    10.9   -3.6   -4.3
I    -9.8    3.7   -6.4
H     0.8  -11.4    4.5
H     4.9   10.8    3.4
I    -2.8  -11.7    3.2
C     1.6  -11.7   -3.7
N     1.2  -12.1   -2.3
I    -2.8  -11.7   -3.2
H     5.3    2.1   11.0
H    -2.6   11.9   -2.5
I   -11.7   -2.7   -3.2
I   -11.8   -2.7    3.2
H     9.7    6.6   -4.2
H    11.7   -3.7    2.4
H   -12.2    2.2    1.9
H    11.1    5.5   -1.8
P    10.7    1.7    6.4
N     6.9   10.0    3.3
P    10.7    1.8   -6.4
P     1.7   10.7    6.4
H   -11.7    3.0    3.4
C   -12.1    2.1    3.0
C    -7.6   -2.4   -9.8
P     1.7   10.8   -6.4
