         400
 sphere cut out from bulk 
P     0.4   -0.0    0.8
I    -1.4   -0.6   -1.8
I    -0.2    3.1    0.6
I     3.1    0.4   -1.2
H     0.3    2.2   -2.5
I    -2.1   -0.5    2.8
I     1.1   -3.2    0.8
H     0.2   -2.4   -2.7
I     2.4    0.3    3.3
H    -2.5   -3.3   -0.1
H    -2.8    3.1    0.1
C     0.7    3.1   -3.0
H    -3.7   -2.0    1.5
N     0.6   -3.2   -3.2
H     1.8    3.1   -2.9
H     3.6   -2.7    1.1
H     0.7   -2.5    3.9
H    -4.4   -1.7    0.0
H     0.3    4.0   -2.5
H     4.4   -1.7    0.0
H     1.6   -3.2   -3.1
H    -4.2    2.3   -0.2
H    -3.8    2.2    2.2
H     0.2   -4.1   -2.7
N    -4.2   -2.4    0.7
N    -3.8    3.1    0.2
H     3.5    3.1    1.8
C    -3.5   -3.6    0.2
H     4.6    2.3   -0.2
N     4.5   -2.4    0.7
H    -0.3    2.1    4.8
H     1.1    3.0    4.2
N     0.4    3.1   -4.4
H     0.8    2.2   -4.9
P    -3.9   -0.1   -3.8
H    -0.9   -3.2    4.4
H    -0.7    3.1   -4.5
C    -4.2    3.1    1.7
C     0.1   -2.9    4.7
H     0.7   -2.3   -5.1
H    -3.4   -4.3    1.0
C     0.3   -3.2   -4.6
H     5.1   -2.0    1.5
H    -4.1   -4.0   -0.6
H    -0.8   -3.2   -4.7
H    -4.2    4.0   -0.2
C     0.3    3.0    4.9
C     4.6    3.1    1.7
I    -5.7    0.4   -1.2
N     5.0    3.1    0.2
H     0.0   -2.1    5.5
H     5.0    2.2    2.2
H    -3.8    4.0    2.1
I    -3.2    3.1   -3.9
H    -5.2   -2.7    1.1
H     4.6    4.0   -0.2
H     4.7   -4.0   -0.6
H    -0.3    3.9    4.8
P     4.9   -0.1   -3.8
I     2.3    0.4   -5.8
P     0.5    6.2    0.8
H     0.8    3.9   -4.9
I    -1.3   -5.9   -1.9
C     5.3   -3.6    0.2
H    -5.3    3.1    1.8
I     4.2   -3.2   -3.7
P     0.5   -6.4    0.8
H     0.7   -4.1   -5.1
I     3.0    5.7   -1.2
H     0.9   -4.8    4.5
P    -3.9   -0.1    5.4
N     0.8   -4.0    5.3
I    -4.6   -3.2   -3.7
I    -2.0   -0.6   -6.4
H     6.0    3.1    0.1
H     5.0    4.0    2.1
I    -1.9   -6.0    2.8
H     5.3   -4.3    1.0
H     1.8   -3.8    5.6
H     1.4    2.2    6.5
I    -3.4    3.1    5.3
H     6.2   -3.3   -0.1
N     0.9    3.1    6.3
I    -1.4    6.7   -1.9
I     2.3    5.9    3.4
P     4.8   -0.1    5.4
I    -6.4    0.3    3.3
I     6.7   -0.5    2.8
I     5.6    3.1   -3.9
I    -2.0    6.7    2.8
H     0.3   -4.5    6.0
I    -1.5   -0.5    7.4
I     4.2   -3.2    5.5
I     3.1   -6.9   -1.2
I     7.4   -0.6   -1.8
H     0.1    3.1    7.0
H     1.4    3.9    6.5
I    -4.5   -3.2    5.5
I     2.4   -6.8    3.4
H    -6.9    3.1   -2.9
I     5.4    3.1    5.3
I    -5.8    5.7   -1.2
P    -3.9    6.2   -3.8
H    -3.8    2.2   -7.1
I    -7.7   -3.2    0.8
P    -3.8   -6.4   -3.8
P    -8.3   -0.0    0.8
H    -7.1   -3.2   -3.1
I     2.9    0.5    7.9
P     0.5   -0.1   -8.4
I     2.3    5.7   -5.8
H    -3.5   -2.4   -7.4
I    -6.4    0.4   -5.8
P     4.8    6.2   -3.8
H     3.5    3.1   -7.5
P     4.9   -6.4   -3.8
I    -2.0   -5.9   -6.4
I     1.3   -3.2   -8.2
H     5.0    2.2   -7.1
H    -3.8    4.0   -7.1
H     0.1    8.6   -2.7
I    -5.7   -6.9   -1.2
H     0.4   -8.6   -2.5
H    -3.5    8.3    1.0
H    -8.4    2.2   -2.5
P    -3.9    6.3    5.3
I    -0.2    3.1   -8.5
C    -8.0    3.1   -3.0
H     0.9    7.8    4.5
P    -3.8   -6.4    5.3
I     8.6    3.1    0.6
H    -3.5   -4.1   -7.4
C    -4.2    3.1   -7.6
H     3.8   -3.2   -7.7
P     9.2   -0.0    0.8
H    -7.6    3.0    4.2
H    -8.6   -2.4   -2.7
H    -8.1   -2.5    3.9
I     2.4   -6.9   -5.8
I     6.7   -0.6   -6.4
N    -8.2   -3.2   -3.2
I    -6.4    5.9    3.4
H     5.2   -2.4   -7.4
N    -3.9   -3.2   -7.8
C     4.6    3.1   -7.6
I     1.0    9.4    0.8
I     6.9   -6.0    2.8
I    -9.0    3.1    0.6
I    -1.4   -5.9    7.4
H     7.9   -3.2    4.4
P     4.9    6.3    5.3
I    -2.1    6.8   -6.4
H     5.0    4.0   -7.1
I    -0.1   -9.5    0.6
H    -3.7   -8.6    2.1
H    -4.1   -8.7   -0.2
H    -4.2    8.6   -0.6
H    -8.0    2.2   -4.9
P     5.0   -6.4    5.3
H    -8.4    4.0   -2.5
H     9.0   -2.4   -2.7
H    -5.3    3.1   -7.5
H     9.1    2.2   -2.5
H    -2.6    9.3   -0.1
I     7.5   -5.9   -1.9
C    -3.6    9.0    0.2
H    -7.0   -3.8    5.6
H     8.1    3.1   -4.5
H    -5.0   -3.2   -7.7
N     4.8   -3.2   -7.8
H     7.9   -3.2   -4.7
H    -4.1   -2.3    8.6
H     4.6    8.6   -0.6
H     4.6   -8.7   -0.2
H    -8.1   -2.3   -5.1
H     5.2    8.3    1.0
H    -2.7   -9.5    0.1
H    -8.6   -4.1   -2.7
H    -2.6   -3.2    9.0
I    -6.4   -6.8    3.4
I    -5.9    0.5    7.9
I     6.8    6.7    2.8
H     5.2   -4.1   -7.4
H    -0.2   -8.7    4.8
P     0.4   -0.1    9.9
N     0.5    9.4   -3.2
H     0.6    8.5   -5.1
H     8.5    2.1    4.8
N    -8.4    3.1   -4.4
H    -2.8    3.1   -9.1
H     0.8   -8.7   -4.9
H     1.6    9.4   -3.1
C     0.8   -9.5   -3.0
H    -7.3    2.2    6.5
H     4.7   -2.3    8.6
N     0.7    8.6    5.3
I    -1.5    6.7    7.4
H    -4.3    2.3    8.9
H     0.2    8.1    6.0
I     7.4    6.7   -1.9
I     2.8    5.7    7.9
H     1.9   -9.5   -2.9
H    -8.0    3.9   -4.9
H    -2.9    3.1    9.2
H     4.5    2.3    8.9
H    -2.5   -3.2   -9.3
N    -3.7   -9.5    0.2
H     5.1   -8.6    2.1
C    -8.5   -3.2   -4.6
H     9.0   -4.1   -2.7
H    -7.8   -4.8    4.5
H     9.1    4.0   -2.5
N    -3.8    3.1   -9.0
C    -8.5    3.0    4.9
I    -0.3    3.1    9.8
C    -3.7   -3.2    9.0
C    -8.7   -2.9    4.7
H     3.6   -9.5    1.8
I   -10.1   -0.6   -1.8
H    -4.1   -4.1    8.6
I     7.3   -0.5    7.4
N    -8.0   -4.0    5.3
I    -6.5    5.7   -5.8
C     5.2    9.0    0.2
H    -8.1   -4.1   -5.1
P    -8.3    6.2    0.8
I     9.9   -3.2    0.8
N     9.4   -3.2   -3.2
C     8.9   -2.9    4.7
C     9.5    3.1   -3.0
H    -1.0    9.4    4.4
P    -8.2   -6.4    0.8
C    -3.6   -3.2   -9.3
C    -4.1   -9.5    1.7
P     0.5    6.3   -8.4
H     8.5    3.9    4.8
H    -9.1    2.1    4.8
H     9.4   -2.5    3.9
C     0.2    9.4   -4.6
P     0.5   -6.3   -8.4
N     0.4   -9.5   -4.4
H     1.2   -9.6    4.2
H    -7.3    3.9    6.5
H    -0.6   -9.5   -4.5
H    -8.8   -2.1    5.5
H     8.8   -2.1    5.5
H    -0.9    9.4   -4.7
N    -3.9    3.1    9.3
N    -7.9    3.1    6.3
H     1.7    8.8    5.6
H     3.5    9.9    1.1
H     0.1   10.2   -2.7
N     9.1    3.1   -4.4
H    -4.3    3.9    8.9
H    -4.2    2.3   -9.5
H     4.7   -4.1    8.6
C     9.0   -3.2   -4.6
I     1.2   -3.2   10.1
H     4.5    3.9    8.9
C     4.7   -9.5    1.7
N     5.0    3.1   -9.0
H     0.4  -10.4   -2.5
N     5.0   -9.5    0.2
C     9.1    3.0    4.9
H     4.6    2.3   -9.5
I    -3.1   -9.5   -3.9
H    -4.0   -2.3   -9.7
C     0.4   -9.6    4.9
C     0.0    9.8    4.7
I     3.0    0.5  -10.4
H     0.6   10.1    3.9
C     5.1   -3.2    9.0
I     2.9   -6.9    7.9
I     4.1    9.4   -3.7
H    -9.4    3.1   -4.5
H     9.5    2.2   -4.9
H    -5.2   -9.5    1.8
H     9.4   -2.3   -5.1
N     4.9    3.1    9.3
H     1.5   -8.7    6.5
H    -9.1    3.9    4.8
I     6.8   -5.9   -6.4
I    -6.4   -6.9   -5.8
I    -1.4   -0.5  -10.9
H    -9.7   -3.2    4.4
H    -4.2    3.9   -9.5
H     4.8   -2.3   -9.7
N    -4.3   10.2    0.7
I    -4.7    9.4   -3.7
C     5.2   -3.2   -9.3
H    -4.1  -10.3   -0.2
N     4.4   10.2    0.7
P     9.2    6.2    0.8
H    -9.6   -3.2   -4.7
H     6.2    9.3   -0.1
H     9.9    3.0    4.2
I   -10.8   -0.5    2.8
H    -3.7  -10.4    2.2
H     4.6    3.9   -9.5
H     6.1   -9.5    0.1
H    -5.3    9.9    1.1
H    -4.0   -4.1   -9.7
P     9.3   -6.4    0.8
H    10.4   -3.2   -3.1
H     6.0    3.1   -9.1
H     4.6  -10.3   -0.2
H    -8.5   -4.5    6.0
H     6.2   -3.2    9.0
H     5.9    3.1    9.2
H     9.5    3.9   -4.9
I    -3.3   -9.5    5.3
H    -3.8   10.7    1.5
I    -5.9    5.7    7.9
H    10.6    3.1   -2.9
I     6.7    6.8   -6.4
H     9.4   -4.1   -5.1
H     0.8  -10.4   -4.9
N     0.9   -9.6    6.3
H     0.6   10.3   -5.1
H    -0.2  -10.5    4.8
H    -8.7    3.1    7.0
I    -7.5   -3.2   -8.2
I    11.1    0.3    3.3
H     4.8   -4.1   -9.7
I     4.1    9.4    5.5
N     9.6   -4.0    5.3
H     3.7   -3.2   10.6
N    -4.0   -3.2   10.5
H     0.2    3.1  -11.3
H     8.9    3.1    7.0
H     6.3   -3.2   -9.3
H     9.7   -4.8    4.5
H     4.3   10.9    0.0
H     9.0   -4.5    6.0
I     5.6   -9.5   -3.9
H    -3.7   -8.6   -7.1
H     5.1  -10.4    2.2
H     3.4    3.1   10.8
H   -11.3   -3.3   -0.1
P     0.4    6.3   10.0
H    -3.6   -2.4   11.0
I    -4.6    9.4    5.5
H    -4.5   10.9    0.0
P    -8.3   -0.1   -8.4
P     0.4   -6.3   10.0
I   -10.1   -5.9   -1.9
H    -0.1   10.5    5.5
H    -3.6    8.6   -7.4
H     5.0   10.7    1.5
H     0.2   -9.6    7.0
I    11.8    0.4   -1.2
N     9.6    3.1    6.3
I    -5.8    0.5  -10.4
N     4.7   -3.2   10.5
H   -11.5    3.1    0.1
I     7.4   -5.9    7.4
C    -4.3    3.1   10.8
I    -5.8   -6.9    7.9
H    -7.9    7.8    4.5
C     4.5    3.1   10.8
H    -3.9    2.2   11.2
H    -6.9   -9.5   -2.9
I    -2.1   -0.6   11.9
H     1.5    2.2  -11.8
H    -5.1   -3.2   10.6
I     5.5   -9.5    5.3
I    -7.8    9.4    0.8
H    -3.6   -4.1   11.0
H    -7.2    9.4   -3.1
I     2.9    5.7  -10.4
H     5.1   -8.6   -7.1
H    -8.4   -8.6   -2.5
I    -1.5   12.1   -1.8
H    10.2    2.2    6.5
I   -10.2    6.7   -1.9
H     5.1   -2.4   11.0
I     7.3    6.7    7.4
H     1.5  -10.4    6.5
H     5.1    8.6   -7.4
N     1.0    3.1  -12.0
H     4.9    2.2   11.2
I     8.5    3.1   -8.5
H    -8.7    8.6   -2.7
H    -5.4    3.1   10.8
H    10.5   -3.8    5.6
I    -1.3   -5.9  -11.0
P     9.3   -0.1   -8.4
I    11.1    0.4   -5.8
I   -10.7   -6.0    2.8
H    -3.9    4.0   11.2
H     1.5    3.9  -11.8
I     1.2    9.4   -8.2
I   -10.8   -0.6   -6.4
P     0.3   12.6    0.8
H     3.6   -9.5   -7.5
I    -2.2   12.1    2.8
H     8.9    8.6   -2.7
H    -7.1    8.8    5.6
I   -10.3   -0.5    7.4
P     0.5  -12.6    0.8
