         400
 sphere cut out from bulk 
H    -0.8   -0.8    1.2
I     1.9   -0.7   -1.6
C    -0.9   -0.9    2.3
H     0.2    0.9    2.6
I    -2.5   -0.1   -1.1
H     1.1   -0.5    2.6
N     0.2   -0.1    2.9
H    -1.4    2.1   -1.7
H    -0.2    3.1   -1.0
I     1.2    2.8    1.1
H    -1.9   -0.5    2.7
H    -0.8   -1.9    2.6
P    -0.7   -2.3   -2.6
N    -0.9    3.0   -1.8
H     0.5    2.3   -3.2
H     0.2   -0.2    4.0
P     3.8    1.4   -0.0
I    -0.6   -4.1    0.0
H     2.7   -3.3   -0.6
C    -0.1    3.1   -3.1
H    -1.5    3.8   -1.7
I     3.8   -0.6    2.5
H    -0.9    3.1   -3.9
I    -3.3    3.6    1.4
H     0.4    4.0   -3.2
P    -5.1    1.4   -0.0
I    -0.8   -0.4   -5.3
C     3.3   -4.2   -0.6
H     2.6   -0.5   -4.9
H    -4.4   -3.4    0.9
H     3.3   -4.3    1.5
I     3.9    3.2   -2.7
P    -0.6    5.0    2.6
H     3.9   -1.3   -4.0
H     4.6   -3.4    0.9
I    -5.2   -0.6    2.5
H     2.7   -5.1   -0.7
N     4.0   -4.2    0.8
H     4.1   -4.1   -1.3
I    -0.8    3.1    5.2
H    -3.4    0.1   -5.1
I     1.3   -4.3   -4.2
I    -2.6   -3.9    4.1
C     3.7   -0.8   -4.9
I     2.0   -4.5    3.7
I    -3.2   -3.8   -3.7
H     4.4    1.1   -4.3
H    -4.6    1.1   -4.3
I     1.3   -0.8    6.3
H     3.9    2.0    4.7
H    -5.0   -1.3   -4.0
I     6.4   -0.1   -1.1
P    -0.7   -6.0    2.6
H     2.8    5.9   -0.7
H    -4.9   -4.1   -1.3
N    -5.0   -4.2    0.8
I    -5.1    3.2   -2.7
N    -4.4    0.4   -5.1
H    -4.4   -5.1    0.9
N     4.5    0.4   -5.1
H     2.7    3.0    5.5
I     5.7    3.6    1.4
I    -0.5    6.9    0.0
H     4.6   -5.1    0.9
P     3.9   -2.3    5.3
C    -5.6   -4.2   -0.6
H     3.9   -1.5   -5.8
H    -6.3   -3.3   -0.6
C     3.7    2.7    5.6
H    -5.1    2.0    4.7
H    -5.7   -4.3    1.5
C    -5.3   -0.8   -4.9
I    -7.1   -0.7   -1.6
H    -3.4    3.7    5.4
H    -4.3    5.9    0.9
H     4.3    0.9   -6.0
H     0.2   -3.7   -6.5
I    -3.2   -0.3    6.8
H     5.5    0.1   -5.1
H    -1.6   -7.2   -1.7
H     4.7    5.9    0.9
H     7.1   -0.5    2.7
H    -4.6    0.9   -6.0
C     3.4    6.8   -0.6
I     2.1    2.9   -6.8
H     0.3   -6.9   -3.2
P    -5.1   -2.3    5.3
H     4.3    4.4    4.5
H     3.4    6.7    1.5
I    -2.5    3.6   -6.4
I     2.1    6.5    3.7
I     5.7   -3.8   -3.7
H    -5.1   -1.5   -5.8
H    -4.6    4.4    4.5
H    -0.9   -4.4    6.5
H     3.9    2.3    6.5
N     4.1    6.8    0.8
P    -0.7    1.3    7.9
H    -0.3   -7.9   -1.0
N    -4.4    3.9    5.4
P    -0.6    1.5   -7.8
I     1.3    6.7   -4.2
H    -6.3   -0.5   -4.9
H     7.6    2.1   -1.7
H     0.4   -3.4    7.3
N     4.6    3.9    5.4
H    -6.2   -5.1   -0.7
H     4.1    6.8   -1.3
C    -5.3    2.7    5.6
H     2.7    7.7   -0.6
N    -1.0   -8.0   -1.8
I    -3.4   -7.4    1.4
H     8.1   -0.8    1.2
H    -7.8   -0.5    2.6
I     1.1   -8.1    1.1
H     0.2   -2.7   -7.9
P     4.0    5.1   -5.2
I    -7.8    2.8    1.1
N    -4.9    6.8    0.8
N     0.2   -3.7   -7.6
C     8.0   -0.9    2.3
H    -4.8    6.8   -1.3
C    -0.2   -7.9   -3.1
H     7.4    3.8   -1.7
H    -5.0    2.3    6.5
I     6.4   -3.9    4.1
C    -0.2   -4.3    7.3
H    -6.2    5.9   -0.7
I    -2.5    7.1    4.1
H     5.6    3.7    5.4
I    -3.2    7.2   -3.7
P     3.9   -5.8   -5.2
H     8.1   -1.9    2.6
H    -4.3    7.6    0.9
C    -5.6    6.8   -0.6
N     8.1    3.0   -1.8
P    -5.0    5.1   -5.2
H     4.4    4.6    6.2
H    -5.6    6.7    1.5
I     5.7   -0.3    6.8
H     1.1   -4.0   -7.8
H    -0.9   -7.9   -3.9
H    -6.3    3.0    5.5
H    -4.6    4.6    6.2
H     4.7    7.6    0.9
H     0.5   -5.2    7.3
P     8.3   -2.3   -2.6
H    -1.9   -4.0   -7.8
H     4.3   -6.6    4.5
I     3.8   -7.8   -2.7
I    -7.0   -4.5    3.7
P    -0.6    8.7   -2.6
H    -1.5   -8.9   -1.7
H    -8.8    0.9    2.6
N    -8.8   -0.1    2.9
H    -4.7   -6.6    4.5
H    -8.4    2.3   -3.2
H     0.5   -8.7   -3.2
H    -0.8    6.6    6.5
I     8.3   -4.1    0.0
H     8.7    3.1   -1.0
H     0.6    5.8    7.3
C    -0.9   -4.4   -8.2
P    -5.1   -5.8   -5.2
I     5.6   -7.4    1.4
I    -0.9   -7.8    5.2
H    -0.7    9.1    2.6
I     1.1   -0.7   -9.4
H     8.1    3.1   -3.9
I     1.9    2.9    8.9
H     9.2    0.9    2.6
H    -0.8   -5.5   -7.8
H    -1.6   -3.6    8.7
H    -0.8    5.5   -7.8
H    -8.8   -0.2    4.0
I    -3.3    0.1   -9.0
N     9.2   -0.1    2.9
I     3.8   -4.3    7.8
I     3.7   -4.1   -7.9
I     8.2   -0.4   -5.3
H    -3.5   -7.3    5.4
H    -9.2    3.1   -1.0
I    -5.2   -7.8   -2.7
N    -0.9   -4.4    8.6
I     6.5    3.6   -6.4
I    -7.7   -4.3   -4.2
H     0.3    7.3   -6.5
C     8.8    3.1   -3.1
H     4.3   -6.4    6.2
H    -6.2    7.7   -0.6
C    -0.1    6.6    7.3
H    -9.8   -0.8    1.2
I     5.8    7.2   -3.7
N    -4.5   -7.1    5.4
N     4.5   -7.1    5.4
I    -7.7   -0.8    6.3
H    -8.5    4.0   -3.2
H     9.2   -0.2    4.0
H    -4.6   -6.4    6.2
H     4.1   -0.6    9.1
H     2.6   -7.9    5.5
H     3.4    3.2   -8.9
I    -6.9    2.9   -6.8
C    -9.1    3.1   -3.1
I    -2.6   -7.4   -6.4
P     8.4    5.0    2.6
I    -6.9    6.5    3.7
I     8.2    3.1    5.2
C    -9.9   -0.9    2.3
H     2.7    0.2    9.9
P    -9.6   -2.3   -2.6
H    -0.9   -4.4   -9.2
H    -0.8   10.2    1.2
I    -5.1   -4.3    7.8
I    -2.5    3.5    9.3
H     9.5    2.3   -3.2
H     2.7   -1.6    9.8
H    -9.8   -1.9    2.6
H    -1.5   -5.3    8.7
P     3.7   -9.6   -0.0
I    -5.2   -4.1   -7.9
H    -4.9   -0.6    9.1
C    -0.8   10.1    2.3
H     7.3   -7.2   -1.7
H    -0.3   -4.4    9.4
I    -9.6   -4.1    0.0
H    10.1   -0.5    2.6
I     6.5    7.1    4.1
H     0.1  -10.1    2.6
N    -9.8    3.0   -1.8
C     3.3   -0.7    9.9
H    -1.4    5.7    8.7
C    -0.9    6.6   -8.2
I    -0.6   -0.6   10.5
H     0.4    7.6    7.3
N     0.3    7.3   -7.6
P     8.3   -6.0    2.6
H     1.2    7.0   -7.8
I    10.1    2.8    1.1
C     3.6   -8.3    5.6
H     5.5   -7.3    5.4
I     2.0   10.3   -1.6
H    -1.8    7.0   -7.8
I     5.6    0.1   -9.0
H     9.4    4.0   -3.2
I     2.0   -8.1   -6.8
H   -10.4    2.1   -1.7
H    -4.3    2.4   -9.6
H     3.8   -8.9    4.7
I     8.4    6.9    0.0
N    -0.9    6.6    8.6
H     1.2   10.5    2.6
P     4.0    8.7    5.3
H     4.6    2.4   -9.6
P    -5.2   -9.6   -0.0
I    -0.6    3.3  -10.5
I    10.9   -0.7   -1.6
I    -7.6    6.7   -4.2
I     3.9    6.7    7.8
H    -1.8   10.5    2.7
N     4.1    3.2   -9.7
H    -5.6    3.2   -8.9
H    -9.8    3.1   -3.9
P    -9.5    5.0    2.6
I    -9.8   -0.4   -5.3
H   -10.8   -0.5    2.7
I     3.8    6.9   -7.9
H     4.0    9.7   -4.0
H     8.0   -4.4    6.5
H    -4.3    4.1   -9.6
I    -2.4   10.9   -1.1
N     0.3   10.9    2.9
H     7.1   -4.0   -7.8
C    -5.3   -8.3    5.6
H   -10.5    3.8   -1.7
P    -5.0    8.7    5.3
H    -5.1   -8.9    4.7
N    -4.9    3.2   -9.7
P     3.8   -2.2  -10.5
I     3.8   10.4    2.5
H     4.6    4.1   -9.6
I    -7.9   -8.1    1.1
H    -0.8    6.6   -9.2
I    -2.6  -11.1   -1.1
C    -5.6   -0.7    9.9
N     8.0   -8.0   -1.8
H     0.2    8.3   -7.9
I    -5.1    6.7    7.8
N     0.1  -11.1    2.9
I    -9.8    3.1    5.2
P     8.3    1.3    7.9
H    -0.2   -0.5  -11.5
H    -8.6   -6.9   -3.2
H    -0.2    6.6    9.4
H    -1.5    7.4    8.7
H     0.3   10.8    4.0
I   -11.5   -0.1   -1.1
H    -8.8   -3.7   -6.5
H     3.9   -8.7    6.5
P     8.4    1.5   -7.8
H    -5.0    9.7   -4.0
H    -6.4   -7.9    5.5
P    -9.6   -6.0    2.6
H     4.3   -9.9   -4.3
I     6.4   -7.4   -6.4
I    -5.1    6.9   -7.9
H    -6.3    0.2    9.9
I    -7.0    2.9    8.9
H     2.8    2.3  -11.1
H    -6.2   -1.6    9.8
I    -9.5    6.9    0.0
H     7.5   -8.9   -1.7
H    -4.7   -9.9   -4.3
H    -8.6   -3.4    7.3
H     4.0    9.5   -5.8
H     8.7   -7.9   -1.0
H    -7.8   -4.0   -7.8
H     9.1   -3.7   -6.5
H     1.1  -11.5    2.6
H     0.1  -11.2    4.0
I    10.2   -4.3   -4.2
I    -0.7   10.6   -5.3
I     6.5    3.5    9.3
I    -5.1   10.4    2.5
P    -5.2   -2.2  -10.5
I     1.8  -11.7   -1.6
H     2.7   10.5   -4.9
C     3.8   10.2   -4.9
H    -1.9  -11.5    2.7
H    -0.9  -11.8    1.2
N     4.0   -0.7   11.2
H     8.0   -7.9   -3.9
C     3.4    3.3  -11.0
H     7.4   -3.6    8.7
I    10.2   -0.8    6.3
H    -5.1   -8.7    6.5
H     9.3   -6.9   -3.2
H    -0.8    2.7   11.7
I     1.3   10.2    6.3
H    -8.8   -2.7   -7.9
H    11.6   -3.3   -0.6
H     2.7    4.1  -11.1
N    -8.8   -3.7   -7.6
C    -1.0  -11.9    2.3
H     0.3   11.9    2.6
P     3.8    4.9   10.5
H    -5.0    9.5   -5.8
C     8.7   -7.9   -3.1
H    -4.4    0.1   11.4
I     1.8   -8.1    8.9
H    -9.3   -7.9   -1.0
I    -7.8   -0.7   -9.4
C     8.8   -4.3    7.3
H    -4.4   -1.5   11.3
I    -2.6   -7.5    9.3
C     8.0   -4.4   -8.2
H     4.6    0.1   11.4
N    -4.9   -0.7   11.2
H     3.3   -7.8   -8.9
H    -1.6    0.3  -12.2
H     9.3   -3.4    7.3
H     8.1    6.6    6.5
H    -8.5   -5.2    7.3
H     4.6   -1.5   11.3
P    -0.7   -9.5   -7.8
H     9.1   -2.7   -7.9
P     8.3    8.7   -2.6
N    -0.9   -0.5  -12.3
H    -1.4   -1.4  -12.2
I     8.1   -7.8    5.2
I    -2.5   -3.6  -11.6
I     3.7  -11.6    2.5
N     9.2   -3.7   -7.6
I    11.0   -4.5    3.7
C    -5.2   10.2   -4.9
P    -9.6    1.5   -7.8
H     4.2  -10.1   -6.0
H     3.3   -0.7   12.0
H    -3.5  -10.9   -5.1
I     1.1   -4.6   11.6
P    -9.6    1.3    7.9
C    -9.2   -7.9   -3.1
H     8.2    9.1    2.6
C    -9.2   -4.3    7.3
P    -0.7   -9.7    7.9
H    -8.4    5.8    7.3
H     8.1   -5.5   -7.8
I    -7.0   10.3   -1.6
N     4.5  -10.6   -5.1
N    -4.5  -10.6   -5.1
I    -0.9  -11.4   -5.3
N     8.0   -4.4    8.6
H    -8.5   -8.7   -3.2
H    -4.4   -6.9   -9.6
H     8.2    5.5   -7.8
H    11.6   -0.5   -4.9
I    -7.0   -8.1   -6.8
H    -9.9   -4.4    6.5
H    -4.7  -10.1   -6.0
P    -5.1    4.9   10.5
