         400
 sphere cut out from bulk 
H     0.4    0.3   -0.7
C     0.1    1.3   -0.6
N    -0.7    1.4    0.6
H    -1.6    0.8    0.6
H    -0.2    1.2    1.4
H    -0.6    1.6   -1.5
H     0.9    2.0   -0.6
H    -1.1    2.4    0.6
H    -1.2   -2.6    0.2
I     2.8   -1.5   -0.3
H     1.2   -3.2    0.3
I    -3.4   -0.7    0.2
C    -0.9   -3.6   -0.0
I     1.4    0.7    3.4
H    -0.7   -3.7   -1.1
N     0.4   -3.9    0.6
H     0.3   -3.9    1.7
I    -0.5    1.5   -4.3
H    -1.6   -4.4    0.3
I     3.7    3.0    0.2
P     4.4    0.3    1.9
H     2.1    2.7   -3.4
H     0.8   -4.8    0.4
I    -2.0    4.7    0.3
I    -2.1   -2.9   -3.7
H     0.8    2.9    4.3
H    -0.7    4.3    2.9
H     4.1    2.9   -2.2
I     0.1   -3.8    4.1
C     2.9    3.4   -3.8
H    -1.5    3.6    4.4
C    -0.8    4.3    4.0
P    -5.0   -2.5   -2.1
I    -4.2    2.5    3.5
H     4.4    2.0   -3.5
N     0.5    3.9    4.6
N     4.2    2.9   -3.2
H     2.7    4.4   -3.4
P     1.7   -1.6    5.7
P     5.3   -2.5   -2.1
P    -5.9    0.3    1.9
P    -2.2   -0.6   -5.9
H     1.3    4.5    4.3
H    -0.5   -4.6   -4.4
H    -2.6   -4.7    3.4
I     4.5   -2.0    4.1
H     2.9    3.3   -4.9
I     5.1   -0.2   -4.4
I    -4.4   -5.2   -0.3
I    -5.2   -0.2   -4.4
H     0.5    3.9    5.6
I     6.8   -0.7    0.2
H     1.1   -5.2   -4.4
H    -1.0    5.3    4.4
I     3.6   -4.7   -3.8
H    -0.2   -6.4   -2.9
H     4.9    3.6   -3.5
I     0.3    6.0   -3.7
H    -5.8    2.0   -3.5
N     0.1   -5.4   -4.7
H    -6.1    2.9   -2.2
I     1.5   -7.0   -0.4
I    -6.6    3.0    0.2
H    -4.6   -5.2    2.1
H     3.6    0.3   -6.4
H    -5.0   -4.2    3.4
H    -5.3    3.6   -3.5
P    -4.9    5.2    1.8
I    -5.8   -2.0    4.1
P    -1.2    4.2   -6.0
C    -3.4   -5.5    3.8
I     6.1    2.5    3.5
N    -6.1    2.9   -3.2
I    -0.8   -0.5    7.5
H     5.3   -4.2    3.4
P    -2.2    7.0   -2.0
H     2.2   -0.1   -7.3
N    -4.7   -5.1    3.1
I    -7.5   -1.5   -0.3
P     5.4    5.2    1.8
I    -3.7    5.3   -4.2
C    -0.3   -6.6   -3.9
I     2.9    6.2    3.6
I     0.3   -1.7   -7.6
H     2.6    1.5   -7.2
I     5.9   -5.2   -0.3
N     3.0    0.5   -7.2
H    -3.2    1.2    7.0
H     5.7   -5.2    2.1
H     0.0   -5.6   -5.7
H    -3.1   -6.5    3.5
H    -4.2    2.5    6.3
H    -3.5   -5.4    4.8
H    -1.3   -6.9   -4.2
H    -4.1   -2.7    6.5
N     5.6   -5.1    3.1
H    -2.7    2.9    7.2
C    -3.6    2.2    7.1
H     4.8   -5.8    3.4
I    -2.9    2.0   -7.6
I     1.7    3.7   -7.5
H     0.4   -7.5   -4.2
I     3.2    0.2    8.0
H    -5.4   -5.8    3.4
H     0.6    8.0    3.5
H    -2.4   -2.3    8.1
H     8.7    0.8    0.6
I    -3.3    7.0    4.1
H     4.1   -4.8   -6.2
P     0.8   -6.5    5.9
P     4.4   -7.5   -2.0
I     0.0    3.9    8.0
H     2.7   -3.5   -7.8
I     2.3   -4.2    7.6
C    -7.4    3.4   -3.8
I    -5.1    7.4   -0.4
H     2.4    7.6   -4.2
I    -6.7   -4.7   -3.8
I     3.2   -7.4    4.1
I    -0.8   -8.3    3.6
H     6.1    2.5    6.3
I     5.2    7.4   -0.4
C    -4.4   -2.7    7.6
H     4.1    7.0   -4.2
H     3.5    8.0   -2.9
H    -8.2    2.7   -3.4
H    -6.7    0.3   -6.4
H    -4.7   -1.6    7.8
I    -3.7   -2.4   -8.1
C     3.8    0.4   -8.5
I    -0.7    9.3   -0.3
H     6.2   -2.7    6.5
I     6.5    5.3   -4.2
N    -3.1   -2.9    8.4
I     8.2   -2.9   -3.7
H    -7.4    3.3   -4.9
H    -7.6    4.4   -3.4
C     3.5    7.8   -3.9
H    -2.8   -3.9    8.1
H     9.1   -2.6    0.2
H    -1.7    8.7    3.4
H     9.2    2.4    0.6
I     8.3    4.7    0.3
H     4.1   -0.7   -8.5
C     6.9   -5.5    3.8
I    -8.9    0.7    3.4
H    -9.4    2.0   -0.6
H    -0.9    9.3    2.1
H     7.6   -4.7    3.4
P     1.6   -9.3    1.8
H     2.3   -5.3   -7.8
H     4.7    1.0   -8.4
N     4.2   -4.8   -7.2
N     9.6    1.4    0.6
H    -9.1   -3.2    0.3
C     3.0   -4.5   -8.0
H     8.7   -4.4    0.3
N    -4.4    2.4    8.4
P    -5.9   -7.5   -2.0
H     5.6   -1.6    7.8
C     0.4    9.0    3.8
I    -2.2   -6.1    7.4
P     0.7    1.3    9.7
H     3.2    0.6   -9.3
I    -3.5   -8.4   -3.7
H     5.0   -4.1   -7.5
N    -0.9    9.4    3.1
H    -9.9    0.3   -0.7
H     5.1    1.7    8.3
H     6.8   -5.4    4.8
H    -5.1   -3.4    7.8
H     9.7    1.6   -1.5
C     5.9   -2.7    7.6
H     5.2   -3.4    7.8
P     8.1   -0.6   -5.9
H    -5.2    1.7    8.3
H    -6.2   -4.8   -6.2
H     7.0    1.2    7.0
C     6.7    2.2    7.1
H    -5.3   -4.1   -7.5
C     9.4   -3.6   -0.0
I    -0.6   -6.1   -8.0
H    -5.6    1.0   -8.4
H    -3.8    2.2    9.2
H    -4.8    3.4    8.4
H    -6.1    7.0   -4.2
H     7.2   -6.5    3.5
I    -7.4    6.2    3.6
N    -7.3    0.5   -7.2
H     0.2    9.1    4.8
H    10.1    1.2    1.4
H     9.6   -3.7   -1.1
C   -10.2    1.3   -0.6
H     2.2   10.1    0.3
H     1.1    9.7    3.4
H    -3.3   -2.9    9.4
H     8.7    3.6    4.4
H    -2.4    2.0  -10.0
C    10.4    1.3   -0.6
P    -8.6   -1.6    5.7
H     4.6   -5.8   -7.5
N     5.9    2.4    8.4
I     2.8   -9.2   -4.2
P    -1.2   -3.5   -9.9
H    -6.1   -0.7   -8.5
I    -1.3    6.5   -8.2
N    -6.0   -4.8   -7.2
H    -7.7    1.5   -7.2
H     5.5    3.4    8.4
N    -9.9   -3.9    0.6
H   -10.5    1.2    1.4
H     4.5    9.6    0.4
C    -6.5    0.4   -8.5
H    -9.5   -4.8    0.4
I     6.9    7.0    4.1
I    -7.1    0.2    8.0
H     3.3   -4.6   -9.1
H    10.7    0.3   -0.7
H    -1.1  -10.1   -3.4
I     6.6   -2.4   -8.1
I     4.5   -9.8    0.3
I     9.8    1.5   -4.3
H    -9.9   -3.9    1.7
H    -9.5    2.9    4.3
I     7.4    2.0   -7.6
H     7.6    2.9    7.2
H    -6.7    8.0   -2.9
P     8.1    7.0   -2.0
H    -8.1   -0.1   -7.3
P     4.5    8.0    5.9
I     4.6    5.6    8.1
H     9.6    4.3    2.9
I    -3.0    9.8   -3.8
N     3.9    9.1   -4.7
H    -1.3   10.3    3.4
H    -9.0    4.5    4.3
H     2.9   -3.7    9.9
H    -5.7   -5.8   -7.5
I    -7.1   -7.4    4.1
H   -10.8    1.6   -1.5
H    -2.5   -9.9    4.3
C    -6.8    7.8   -3.9
N   -11.0    1.4    0.6
C     9.5    4.3    4.0
H    -4.7   -9.2    4.4
H     3.8    8.9   -5.7
H    -5.8    9.6    0.4
C     2.9   10.9   -0.0
H     3.0   10.8   -1.1
I     1.6    8.4    7.4
I    -8.8   -7.0   -0.4
H     3.3    9.9   -4.4
I    -5.8   -9.8    0.3
I    -5.7    5.6    8.1
N     7.1   -2.9    8.4
N     4.2   10.6    0.6
H    -9.2   -5.2   -4.4
H    11.2    2.0   -0.6
N    10.7   -3.9    0.6
H     4.9    9.3   -4.4
H    10.6   -3.9    1.7
H    -7.6   -3.5   -7.8
N    -2.4    2.0  -11.0
N    -9.8    3.9    4.6
I     6.8   -8.4   -3.7
H     6.5    2.2    9.2
H    -4.4  -10.2    2.9
P    -5.8    8.0    5.9
H     1.2  -10.9   -3.5
H     4.1   10.6    1.7
I    -0.0  -11.5    0.2
P     1.6    6.1   -9.7
P     1.7    6.1    9.6
H     7.9   -2.3    8.1
H     5.5   -9.2    4.4
H     9.3    5.3    4.4
I    -2.3    1.6   11.2
H    -2.1    1.0  -11.3
H    -1.9    8.7   -7.5
I   -10.2   -3.8    4.1
P     9.1    4.2   -6.0
H    -5.4    9.3   -4.4
H   -11.4    2.4    0.6
H   -11.0   -3.7   -1.1
H     9.8   -4.6   -4.4
I   -10.8    1.5   -4.3
H    -7.8    7.6   -4.2
H    -1.6    2.7  -11.3
C   -11.2   -3.6   -0.0
C    -7.3   -4.5   -8.0
H    -7.1    0.6   -9.3
H     7.5   -3.9    8.1
H     0.4  -11.5   -2.2
I    -8.0   -4.2    7.6
I    10.4   -3.8    4.1
H    -2.5    9.7   -6.2
C    -0.9  -11.1   -3.8
H   -11.5   -2.6    0.2
H     2.4   -2.7   11.2
C    -4.5  -10.2    4.0
H    11.4   -3.2    0.3
H   -11.8    0.8    0.6
N     3.0   -3.5   10.9
H    -9.8    3.9    5.6
N    -3.2  -10.6    4.6
I    -8.6    3.7   -7.5
N     0.4  -11.5   -3.2
I     0.8   -1.1   11.9
I     3.2    8.4   -8.0
I     3.8   10.7    4.1
N    -6.4    9.1   -4.7
I     0.9   -8.9    8.1
I     9.4   -0.5    7.5
H     7.0   -2.9    9.4
H     9.0   -6.9   -4.2
I     2.4    3.4   11.3
H    11.1   -4.8    0.4
H     5.8  -10.2    2.9
H     2.6   11.9    0.2
H   -11.0    4.3    2.9
I    11.7    0.7    3.4
H    -0.8  -11.1   -4.9
P    -1.3   11.9   -2.1
I     1.6   -3.9  -11.5
I     1.6   11.5   -3.7
H    -4.4    1.7  -11.2
H    11.1    2.9    4.3
N    -6.1   10.6    0.6
I   -10.0    6.0   -3.7
N    -2.3    9.6   -7.2
H    10.1   -6.4   -2.9
H     4.9   11.3    0.3
H     4.0   -3.3   11.2
I    -1.5   -1.2  -12.2
H    -8.0   -5.3   -7.8
C     5.8  -10.2    4.0
H    -7.0   -4.6   -9.1
H    -3.9    3.4  -11.2
N    10.8    3.9    4.6
C    -3.7    2.4  -11.6
N   -10.1   -5.4   -4.7
H    -6.2   10.6    1.7
H    -1.6  -11.8   -3.4
H    -6.5    8.9   -5.7
H    -3.3  -10.6    5.6
H    -5.4   11.3    0.3
I     3.2    0.6  -12.1
H   -10.8   -4.6   -4.4
H     1.6   -5.0   11.4
I    -5.1   -8.0   -8.2
C   -11.1    4.3    4.0
I     8.1   -6.1    7.4
I     5.2   -8.0   -8.2
I    -7.5   -9.2   -4.2
H   -10.5   -6.4   -2.9
C    10.0   -6.6   -3.9
N    10.4   -5.4   -4.7
I   -10.0   -1.7   -7.6
H   -11.9   -4.4    0.3
H    -3.0  -11.5    4.3
H     8.6    8.7    3.4
I    10.6    6.0   -3.7
I    -3.8   -2.8   11.8
H     5.0  -10.9    4.4
I     2.4  -12.0    3.5
H    -4.5    5.2   10.7
I     0.0    4.3  -12.0
H    10.8    3.9    5.6
H    -4.3    9.2   -7.8
I     7.3    9.8   -3.8
H     5.8    1.7  -11.2
H    -2.8  -12.5   -0.6
H    -1.5   10.3   -7.5
H    -5.3  -10.9    4.4
P    -8.7   -9.3    1.8
P    -5.0  -10.2   -6.0
H     7.9    2.0  -10.0
C     2.6   -4.8   11.7
H    -7.0    9.9   -4.4
H    -7.4   -3.7    9.9
P    -2.1   -8.4    9.6
H    -8.1   10.1    0.3
P    -9.5   -6.5    5.9
H   -10.3   -5.6   -5.7
P    -2.1   -8.4   -9.7
P     5.3  -10.2   -6.0
H    -2.9    3.9   12.1
H    -9.7    8.0    3.5
H     0.7  -12.5   -3.5
H    -4.9  -12.1    0.6
H    10.3   -5.6   -5.7
H    -7.3   10.8   -1.1
C   -10.6   -6.6   -3.9
H    -9.9   -7.5   -4.2
H     3.3   -5.6   11.4
I     9.5   -8.3    3.6
H   -11.8    3.6    4.4
I    -6.5   10.7    4.1
H    12.4    2.7   -3.4
I    10.6   -1.7   -7.6
