         400
 sphere cut out from bulk 
I    -1.0    0.2   -1.2
H     0.8    0.8    1.2
C     0.7    0.8    2.3
H    -0.3    0.3    2.6
H     0.3   -2.3   -2.0
H     1.8   -0.9    2.5
H     0.7    1.9    2.7
N     1.8    0.1    2.9
P     0.9    2.3   -2.6
P    -3.5   -1.4   -0.0
H     2.7    0.5    2.6
I     3.5    0.8   -1.4
C     0.7   -3.3   -2.1
H     1.3   -3.5   -1.3
I    -1.6   -3.5    1.6
I     2.8   -2.9    1.2
H     1.8    0.1    3.9
I     1.0    4.2   -0.0
I    -3.6    0.5    2.6
H    -0.2   -4.0   -2.1
H    -2.3    4.1   -0.0
H     2.2   -2.9   -3.4
N     1.4   -3.5   -3.4
H    -4.4    2.8   -0.1
H    -3.6    0.1   -3.8
I     1.0    0.4   -5.2
H     4.6    2.8   -0.1
H     0.8   -3.3   -4.2
H    -1.7    0.4   -5.2
H    -2.7   -2.9    3.9
I    -3.6   -3.2   -2.6
H     3.7    4.2   -0.0
I    -1.6    3.8   -3.8
P     5.4   -1.4   -0.0
C    -3.2    4.6   -0.3
I    -5.4    0.8   -1.4
P     1.0   -5.0    2.6
H    -3.3    4.6   -1.4
N    -4.4    3.8    0.2
I    -0.9    3.9    4.2
H     1.7   -4.5   -3.5
H    -4.4    3.8    1.3
N     4.6    3.8    0.2
I     5.4    0.5    2.6
H    -2.6    1.8   -5.2
N    -2.6    0.8   -5.5
H     4.6    3.8    1.3
C    -3.7    0.0   -4.9
H    -2.6   -1.8    5.3
I     0.9   -3.2    5.3
N    -2.6   -2.8    5.0
H    -3.3   -5.4    0.0
H    -1.7   -3.2    5.3
H    -3.7   -1.0   -5.2
H    -3.3    5.6    0.0
H     5.3    0.1   -3.8
P     0.9    6.0    2.6
I     2.8    4.4   -4.2
P    -3.5    2.4    5.2
I     3.5    4.4    3.7
I     5.3   -3.2   -2.6
H    -5.3    4.2   -0.0
H     4.3    0.5   -5.2
H    -6.2    0.5    2.6
I    -6.1   -2.9    1.2
I    -1.7    0.2    6.7
I     2.8    0.8    6.3
I     1.0   -6.8   -0.0
H    -4.7    0.5   -5.2
H    -2.6    0.8   -6.5
C     5.2    0.0   -4.9
I    -0.8   -3.5   -6.2
C    -3.2   -6.5   -0.3
H    -2.3   -6.9   -0.0
C     5.7    4.6   -0.3
H    -0.2    7.1   -2.1
H     5.7    4.6   -1.4
H     4.2   -3.1    5.2
H    -3.3   -6.5   -1.4
H     5.3   -1.0   -5.2
H     0.7    4.1    6.3
H    -7.1   -0.9    2.5
C    -3.8   -3.6    5.6
H     1.7    6.6   -3.5
H    -4.7   -3.1    5.2
N    -7.2    0.1    2.9
H     1.8    3.7   -6.5
H     1.3    7.5   -1.3
H     3.7   -6.8   -0.0
H     1.7    3.0    7.0
H     6.7    4.1   -0.0
H     5.7   -5.4    0.0
I    -5.4    4.4    3.7
H    -3.8   -4.6    5.2
P     5.5    2.4    5.2
I    -1.6    7.6    1.6
H     6.3   -2.9    3.9
H     5.7    5.6    0.0
P     0.9   -1.4    7.9
P    -3.4   -5.1   -5.2
P     1.0   -1.4   -7.9
C     0.7    7.8   -2.1
I     8.0    0.2   -1.2
H    -6.8   -2.9   -3.4
H    -7.2    0.1    3.9
N     1.3    3.9    7.1
I     7.3   -3.5    1.6
I     3.6   -3.0   -6.8
H    -8.2    0.8    1.2
I    -0.9   -7.1    4.2
I    -1.6   -7.3   -3.8
I     2.8   -6.7   -4.2
I     3.5   -6.7    3.7
C     5.2   -3.6    5.6
H    -3.7   -3.5    6.7
N     1.4    7.6   -3.4
H     6.4    1.8   -5.2
N     6.4    0.8   -5.5
H     6.3   -1.8    5.3
N    -4.4   -7.2    0.2
H    -7.6   -3.5   -1.3
N     6.3   -2.8    5.0
H    -4.4   -7.2    1.3
N     4.6   -7.2    0.2
H     1.9    2.7   -7.9
I    -6.1    4.4   -4.2
H     2.1    4.6    7.0
N     1.9    3.7   -7.6
H    -5.3   -6.8   -0.0
C    -8.3    0.8    2.3
P    -3.4    6.0   -5.2
C     5.7   -6.5   -0.3
H     4.6   -7.2    1.3
H     5.2   -4.6    5.2
P    -8.0    2.3   -2.6
H     5.7   -6.5   -1.4
I     2.8    8.2    1.2
H     0.8    7.7   -4.2
H    -0.2    4.0   -7.9
I    -6.2    0.8    6.3
H    -8.3    1.9    2.7
H     7.3    0.4   -5.2
N    -7.6   -3.5   -3.4
I    -8.0    4.2   -0.0
I    -3.6    7.8   -2.6
H     0.3    8.8   -2.0
I    -1.6    0.2   -8.9
H     8.7    0.3    2.6
H    -0.3    3.5    8.4
I     7.3    3.8   -3.8
H    -3.8    6.4    5.2
H    -8.6   -2.3   -2.0
H     6.4    0.8   -6.5
H     2.2    8.2   -3.4
P     5.5   -5.1   -5.2
I    -5.3   -3.0   -6.8
H    -7.2   -4.5   -3.5
C    -8.3   -3.3   -2.1
H     5.3   -3.5    6.7
P     0.9   -8.8   -2.6
H     2.8    4.1   -7.8
H    -4.4   -8.2   -0.1
I    -5.4   -6.7    3.7
C     0.7    4.5   -8.2
C     0.6    4.1    8.4
H     0.7   -7.0    6.3
H     4.6   -8.2   -0.1
H    -2.7    8.2    3.9
I     0.9    7.8    5.3
H     7.2   -3.2    5.3
I    -8.0    0.4   -5.2
H     0.8    5.5   -7.8
I    -3.5    4.2   -7.9
H    -1.7    7.8    5.3
H    -9.2    0.3    2.6
H     0.8   -5.6   -7.8
H     0.7   -9.2    2.7
H     6.7   -6.9   -0.0
I    -3.7    4.2    7.8
P     5.5    6.0   -5.2
H    -3.4    0.9    9.0
I     2.9    0.8   -9.3
H     9.3   -2.3   -2.0
H    -8.2   -3.3   -4.2
H     5.2    6.4    5.2
H     2.1   -6.5    7.0
I     5.3    7.8   -2.6
P    -8.0   -5.0    2.6
I    -0.8    7.6   -6.2
H     9.7    0.8    1.2
H     8.8   -4.0   -2.1
I     7.3    0.2    6.7
H     0.3    5.2    8.4
C     9.6    0.8    2.3
I     8.1    3.9    4.2
N    -2.7    8.2    5.0
I    -6.1   -6.7   -4.2
I    -1.0   -3.5    9.3
I    -9.9    0.2   -1.2
H     1.8   -7.4   -6.5
H     1.3    3.9    9.2
C    -3.8    7.5    5.6
I     3.5   -2.8    9.1
I    -8.0   -3.2    5.3
N     1.3   -7.1    7.1
H     9.7    1.9    2.7
H    -9.2   -4.0   -2.1
I    -6.1    8.2    1.2
P    -3.5    9.7   -0.0
H     0.3   -5.9    8.4
I     5.2    4.2    7.8
H     0.8    4.5   -9.3
H     0.8  -10.2    1.2
H    -7.1    3.7   -6.5
P    -8.0    6.0    2.6
H    -7.2    6.6   -3.5
C     9.6   -3.3   -2.1
H     4.2    8.0    5.2
I     5.4    4.2   -7.9
I     0.9    0.6   10.4
I    -8.0   -6.8   -0.0
P     9.9    2.3   -2.6
C     0.7  -10.2    2.3
H    -7.3    3.0    7.0
C     0.7   -6.6   -8.2
H    -0.2   -7.1   -7.9
H     1.8   10.2    2.5
H    -4.7    8.0    5.2
C     5.2    7.5    5.6
H     5.6    0.9    9.0
I     7.3    7.6    1.6
C    -3.3    1.0   10.1
H    -3.7    7.5    6.7
N     1.9   -7.4   -7.6
P    -3.5   -8.7    5.2
H    -2.4    0.5   10.5
H    -4.3   -3.6   -9.2
H    -7.6    7.5   -1.3
H    -6.2    4.1   -7.8
H    -6.8    4.6    7.0
I    10.0    4.2   -0.0
I     8.1   -3.5   -6.2
H     1.7   -8.1    7.0
H     2.8   -6.9   -7.8
C     0.6   -6.9    8.4
H     4.7   -3.6   -9.2
H    -2.6   -9.3   -5.2
I     3.5  -10.2   -1.4
H    -2.6    9.2    5.3
I    -5.5   -2.8    9.1
H    -7.1    2.7   -7.9
H    10.3   -3.5   -1.3
I    -1.0  -10.9   -1.2
I     7.3   -7.3   -3.8
H    -0.3  -10.7    2.6
N    -7.1    3.7   -7.6
I    -3.5   -6.9   -7.9
I     1.1   -3.2  -10.5
H     3.6    0.6   10.4
H     6.3    8.2    3.9
I    -3.7   -6.9    7.8
H    -3.2   -1.8  -10.4
H     9.7   -3.3   -4.2
I    -6.1    0.8   -9.3
P     5.4    9.7   -0.0
H    10.8   -0.9    2.5
I     3.6    8.0   -6.8
N    10.8    0.1    2.9
N    -7.6    3.9    7.1
H    -8.3    4.1    6.3
H    -6.8    8.2   -3.4
H    -3.4    2.0   10.5
H    -2.2   -3.3  -10.5
N    -7.6    7.6   -3.4
H     2.7  -10.6    2.6
I    10.0    0.4   -5.2
I   -10.6   -3.5    1.6
P    -7.9   -1.4   -7.9
P    -3.5    2.2  -10.5
H    -4.4   -0.8   10.4
H    -0.3   -7.6    8.4
I    -1.0   11.2   -1.2
H     5.3    7.5    6.7
H     4.5   -0.8   10.4
P    -8.1   -1.4    7.9
H     0.8   -6.6   -9.3
P     9.9   -5.0    2.6
I    -9.8    3.9    4.2
I    -3.6  -10.5    2.6
H    10.7    0.1    3.9
N    10.3   -3.5   -3.4
H     8.8    7.1   -2.1
N     6.3    8.2    5.0
N     1.8  -11.0    2.9
P     5.5   -8.7    5.2
C    -8.3    7.8   -2.1
I     7.4    0.2   -8.9
I     8.1   -7.1    4.2
N    -4.4    0.2   10.7
C    -3.2   -2.8  -10.8
H     3.7   -3.2  -10.5
N     4.5    0.2   10.7
N     1.8   11.1    2.9
C     5.7    1.0   10.1
N    -4.3   -3.6  -10.2
I     9.9   -3.2    5.3
I     5.2   -6.9    7.8
H     1.9   -8.3   -7.9
I    -5.4  -10.2   -1.4
H    -0.3   11.4    2.6
H    -5.3    0.6   10.4
H     1.3   -7.2    9.2
H    -6.8   -6.5    7.0
H    -9.2    7.1   -2.1
N     4.7   -3.6  -10.2
I     5.5   -6.9   -7.9
I    -5.3    8.0   -6.8
H     1.4    0.1  -11.7
H     1.8  -11.0    3.9
H   -10.6    0.4   -5.2
I   -10.6    3.8   -3.8
H     7.2    7.8    5.3
P     9.9    6.0    2.6
I     1.0  -10.7   -5.2
H     1.8   11.1    3.9
N    -2.6  -10.3   -5.5
H    -3.7   10.1   -5.2
H    11.7    0.5    2.6
H   -11.3    4.1   -0.0
H     0.8   11.9    1.2
H    -1.7  -10.7   -5.2
H     0.7   -2.8   11.7
H    -8.2    7.7   -4.2
H    11.2   -2.9   -3.4
H     5.7   -1.8  -10.4
H     5.6    2.0   10.5
P     5.5    2.2  -10.5
I    -1.0    7.6    9.3
I    10.0   -6.8   -0.0
I    -9.8   -3.5   -6.2
H    10.7   -4.5   -3.5
I     5.4  -10.5    2.6
P    -3.6   -5.0   10.4
C     0.7   11.9    2.3
H     2.7   11.5    2.6
H    -5.2   -3.2  -10.5
H    -6.2   -6.9   -7.8
H    -7.1   -7.4   -6.5
H    -3.6  -11.0   -3.8
P    -8.0   -8.8   -2.6
I    11.8   -2.9    1.2
H     9.7    4.1    6.3
I    -0.9    3.8  -11.6
H    -4.3   -4.6  -10.5
H    -3.6   11.2   -3.8
H   -10.7   -3.2    5.3
I     2.8  -10.3    6.3
H     1.8  -12.0    2.5
H     6.3    9.2    5.3
H     6.6    0.5   10.5
I    -8.0    7.8    5.3
H     6.4   -9.3   -5.2
I    -3.6   11.6    2.6
H     4.7   -4.6  -10.5
C    -8.2    4.5   -8.2
H     8.8    4.0   -7.9
H    -2.6  -10.3   -6.5
I     3.5   11.9   -1.4
H    -8.6    8.8   -2.0
P     1.0    9.7   -7.9
H    -8.3   -7.0    6.3
P     0.9    9.7    7.9
H     5.3   10.1   -5.2
H     4.3  -10.5   -5.2
C     9.6    7.8   -2.1
H    -0.1   -0.4  -12.5
C    -8.4    4.1    8.4
P   -12.5   -1.4   -0.0
H    -6.2  -10.6    2.6
I   -10.6    0.2    6.7
H    -4.4    0.2   11.7
H     0.4    1.4  -12.5
H     8.7    3.5    8.4
C     0.7    0.3  -12.5
H    -8.2    5.5   -7.8
H    -4.3    7.5   -9.2
C     5.8   -2.8  -10.8
P    -3.6    6.1   10.4
H     4.5    0.2   11.7
H    -7.7    3.9    9.2
H   -11.6   -2.9    3.9
I    12.5    0.8   -1.4
H    -8.2   -5.6   -7.8
C    -3.7  -11.0   -4.9
N    -7.6   -7.1    7.1
I     1.0   11.5   -5.2
H    -3.2   -2.9  -11.9
H    -4.7  -10.5   -5.2
H    -8.3   -9.2    2.7
H    -7.1   10.2    2.5
