         400
 sphere cut out from bulk 
H     1.3    0.9    1.1
H     2.1   -0.1   -1.0
I    -2.2    0.9    0.4
C     2.4    1.1    0.7
N     2.7   -0.0   -0.2
H     2.6   -1.0    0.3
I     0.6   -1.0   -2.9
H     2.4    2.0    0.2
H    -2.1   -2.4    0.2
H     3.0    1.1    1.6
P    -2.1    0.7   -2.9
H     3.7    0.1   -0.6
H    -1.8    3.6    0.6
I    -0.3   -1.8    3.6
I     2.2   -3.6    0.4
C    -2.5   -3.4    0.6
H    -0.5   -4.2    0.6
P    -2.2    0.8    3.6
I     0.4    2.7    3.5
I    -0.4    3.4   -2.9
H    -2.5   -3.4    1.7
N    -1.5   -4.4    0.3
H    -1.4    4.4   -0.8
N    -1.5    4.5    0.3
H    -1.4   -4.5   -0.8
H    -0.6    4.7    0.6
H    -3.4   -3.7    0.2
I    -4.0   -1.9   -2.7
H    -5.2    0.1   -0.6
P     2.4   -3.8   -2.9
H     2.7    0.3   -4.7
I     4.0    2.5   -2.9
I     4.1   -1.1    3.7
P     2.3   -3.7    3.6
H    -1.7   -5.4    0.6
H     1.5    1.3    5.4
I     2.1    5.3    0.4
I     5.0   -1.9   -2.7
H     2.5    0.0    5.4
C    -2.5    5.5    0.6
H    -5.9    1.1    1.6
I    -4.9    2.5   -2.9
I    -4.8   -1.1    3.7
N    -6.2   -0.0   -0.2
I    -0.3   -5.5   -2.9
H    -3.5    5.2    0.2
N     1.9    0.6    6.0
P     2.3    5.1   -2.9
H    -2.5   -2.7   -5.2
H    -6.3   -1.0    0.3
N     2.9    0.1   -5.7
H    -2.6    5.6    1.7
I    -4.1    3.4    3.6
H     1.1    0.0    6.3
H     1.0    0.7   -6.3
H     2.7   -0.9   -5.9
I    -2.4    0.6   -6.1
H     5.5   -3.7    0.2
C    -6.5    1.1    0.7
H    -1.4   -4.1   -5.1
I     6.7    0.9    0.4
P     2.2    5.2    3.6
H    -6.5    2.0    0.2
H    -1.0   -2.7   -6.2
H    -2.2   -3.7    5.3
I     4.8    3.4    3.6
H    -2.2    6.5    0.2
C    -1.8   -3.3   -5.8
C     2.0    1.0   -6.5
H    -6.8   -0.1   -1.0
H     2.2    2.0   -6.3
H     3.9    0.3   -5.8
I    -2.0    0.9    6.8
I     0.4   -6.3    3.5
H     6.8   -2.4    0.2
H    -1.4    4.9   -5.1
C     6.4   -3.4    0.6
H     2.5   -6.9    0.2
H    -2.2   -2.4    6.6
P     6.8    0.7   -2.9
H     6.4   -3.4    1.7
I     2.5   -3.6   -6.1
H     5.4    5.2    0.2
P     6.7    0.8    3.6
C    -2.4   -3.5    6.3
I    -6.7   -3.6    0.4
C     2.6    1.2    7.1
H    -5.0    0.3   -5.8
H    -7.6    0.9    1.1
H     3.4    1.8    6.7
I    -4.1   -5.6    3.6
H    -2.2    5.3    5.3
H    -6.2    0.3   -4.7
H     2.3    0.8   -7.6
H     7.1    3.6    0.6
I    -0.4    7.2    3.6
H    -1.7    3.6    7.0
I     2.1   -3.8    6.8
P    -6.5   -3.8   -2.9
H     1.9    1.8    7.7
I     4.1   -6.5   -2.9
H     1.4   -8.0    1.1
H    -0.5   -4.1    7.1
I     4.8   -5.6    3.6
C     2.4   -7.9    0.7
C    -1.8    5.6   -5.8
N    -6.0    0.1   -5.7
H    -3.5   -3.7    6.6
N    -2.5   -3.9   -6.9
H     3.0    0.4    7.8
H    -6.4    0.0    5.4
I    -2.2   -8.1    0.4
H     2.6    8.0    0.3
P    -6.7   -3.7    3.6
I     0.5    7.9   -2.9
I     2.4    5.4   -6.1
C     6.4    5.5    0.6
I    -4.0    7.0   -2.7
H    -2.5    6.3   -5.2
N    -1.5   -4.3    7.2
H    -0.6    4.8    7.1
I    -4.8   -6.5   -2.9
H    -6.2   -0.9   -5.9
H     3.1   -7.9    1.6
H    -3.4    4.4   -6.6
I    -6.8    5.3    0.4
H    -3.3   -4.5   -6.6
H     6.3    5.6    1.7
H     6.4   -2.7   -5.2
N     7.4    4.5    0.3
N     7.5   -4.4    0.3
H    -2.9   -3.2   -7.5
N    -1.6    4.6    7.2
C    -2.5    5.5    6.3
H     7.5    4.4   -0.8
I     2.0    5.1    6.8
P    -6.6    5.1   -2.9
H     7.6   -4.5   -0.8
H    -1.0    6.3   -6.2
H    -5.5    1.8    6.7
I    -8.3   -1.0   -2.9
N    -2.6    5.0   -6.9
H    -1.9    4.4   -7.5
P    -2.1   -8.2   -2.9
I     6.5    0.6   -6.1
H    -1.9   -4.5   -7.5
H    -1.7   -5.3    7.0
I     4.9    7.0   -2.7
H     7.2   -5.4    0.6
H    -3.5    5.2    6.6
H     2.0    8.9   -1.0
P    -2.2   -8.2    3.6
P    -6.7    5.2    3.6
H    -7.4    1.3    5.4
N    -7.0    0.6    6.0
N     2.7    8.9   -0.2
H     5.4   -3.7    6.6
H     2.1   -9.0   -1.0
H     6.7   -3.7    5.3
H     6.7    6.5    0.2
H    -1.8   -4.2    8.2
I     0.3   -1.1   -9.3
N     2.7   -9.0   -0.2
H    -6.7    2.0   -6.3
H     8.4   -4.2    0.6
H    -6.4   -6.9    0.2
H     1.5   -7.6    5.4
I     8.6   -1.8    3.6
I    -6.4   -3.6   -6.1
H    -2.3    6.5    6.6
C    -6.9    1.0   -6.5
P    -2.2    0.7   -9.3
C    -6.3    1.2    7.1
I     4.0    7.9    3.7
I    -8.5    2.7    3.5
H     8.4    4.7    0.6
H     2.2   -6.9   -6.3
H     3.7   -8.9   -0.6
I     8.5    3.4   -2.9
H    -1.8    4.8    8.2
H     5.5    4.4   -6.6
H     6.7   -2.4    6.6
H     3.6    9.0   -0.6
C     6.5   -3.5    6.3
C     7.1   -3.3   -5.8
H     5.6   -4.5   -6.6
H    -5.9    0.4    7.8
I     6.9    0.9    6.8
I    -0.4    3.3   -9.2
H    -5.8   -7.9    1.6
H    -3.0    5.7   -7.5
I    -4.9    7.9    3.7
H     5.4    5.2    6.6
I     9.5   -1.0   -2.9
H     7.5   -4.1   -5.1
H     1.3    9.9    1.1
H     6.7    5.3    5.3
H    -7.8    0.0    6.3
I    -9.2   -1.8    3.6
I    -2.3    9.8    0.4
H    -6.7    0.8   -7.6
H     6.0   -3.2   -7.5
N     6.4   -3.9   -6.9
H    -6.3    8.0    0.3
H    -7.9    0.7   -6.3
I    -0.4   -2.0   10.0
C    -6.5   -7.9    0.7
H     2.7   -8.7   -4.7
P    -2.1    0.7   10.0
I     9.3    2.7    3.5
H     2.7   -9.9    0.3
P     2.2   -3.7   -9.3
H     7.5    4.9   -5.1
H    -5.2   -8.9   -0.6
I    -9.3    3.4   -2.9
H     2.7    8.0   -5.9
C     2.3   10.0    0.7
H    -9.4   -4.2    0.6
P    -2.1    9.7   -2.9
H     6.4    6.3   -5.2
H    10.2    0.9    1.1
I    -6.8   -3.8    6.8
H     3.5   -7.1    6.7
I    -6.5    5.4   -6.1
H     7.9   -2.7   -6.2
I     0.6   -9.9   -2.9
I    -4.1   -1.8   -9.4
H     1.0   -8.2   -6.3
H    -5.3    9.0   -0.6
N     1.9   -8.3    6.0
I     4.1    2.6   -9.3
I     6.7   -8.1    0.4
C     2.1   -8.0   -6.5
H    -7.0    1.8    7.7
I     0.5    2.6   10.2
H     3.0   10.0    1.6
C     6.4    5.5    6.3
I    -2.3   -8.3   -6.1
H    -9.5    4.7    0.6
P    -2.3    9.7    3.6
I     8.6   -5.5   -2.9
N     6.3    5.0   -6.9
H     7.2    3.6    7.0
H     2.6    9.2   -4.7
H     2.0   -7.1    7.7
I    -2.0   -8.0    6.8
I     4.8   -1.8   -9.4
C     7.1    5.6   -5.8
H     2.5    8.9    5.4
H     2.6   -8.9    5.4
I    -0.3   -5.6   -9.2
I    -4.8    2.6   -9.3
I     4.1   -1.0   10.0
C     2.7   -7.7    7.1
N    -6.2    8.9   -0.2
N    -6.2   -9.0   -0.2
P     2.2    5.2   -9.3
N     2.9   -8.8   -5.7
P     2.4   -3.7   10.0
I    -6.9    5.1    6.8
H     1.1   -8.9    6.3
H     1.1    8.9    6.3
H    11.0   -0.1   -1.0
H    -7.5   -8.0    1.1
N     2.8    9.0   -5.7
P     6.8   -8.2   -2.9
I    -4.8   -1.0   10.0
H     3.9   -8.6   -5.8
I    -8.5   -6.3    3.5
I    -9.2   -5.5   -2.9
H     7.0    4.4   -7.5
P     6.7   -8.2    3.6
H     5.9    5.7   -7.5
N     7.4   -4.3    7.2
H    -5.4   -7.1    6.7
H     7.0   -4.5   -7.5
I   -11.2    0.9    0.4
H     2.4   11.0    0.2
H   -10.3    4.4   -0.8
H   -10.3   -4.5   -0.8
N     7.3    4.6    7.2
H   -10.7    3.6    0.6
I    -3.9    3.5   10.0
H    -6.9    8.9   -1.0
N   -10.4   -4.4    0.3
H   -11.0   -2.4    0.2
I    -0.3  -10.7    3.6
H    -6.8   -9.0   -1.0
N   -10.4    4.5    0.3
C    11.3    1.1    0.7
H     1.9    1.1  -11.2
H     7.2   -5.3    7.0
H     2.3   -8.2   -7.6
H     6.6    6.5    6.6
N     1.8    9.5    6.0
P   -11.0    0.7   -2.9
I     4.1  -10.0    3.7
P     6.7    0.7   -9.3
H    -6.7   -6.9   -6.3
H    11.4    2.0    0.2
H    -5.0   -8.6   -5.8
P     2.3    5.3   10.0
H     0.9    9.6   -6.3
H    -2.1  -11.4    0.2
H    11.5   -1.0    0.3
I    -2.4    9.5   -6.1
H     3.8    9.3   -5.8
N    11.6   -0.0   -0.2
H    -6.2   -8.7   -4.7
H     7.1   -4.2    8.2
I    11.1   -3.6    0.4
H     1.4   10.3    5.4
H     8.4   -4.1    7.1
I     5.0    3.5   10.0
I    -4.8  -10.0    3.7
I     8.5    7.2    3.6
H    -6.2   -9.9    0.3
H    -5.9   10.0    1.6
P   -11.1    0.8    3.6
H    -6.2    8.0   -5.9
H     9.9    0.7   -6.3
I     9.3   -6.3    3.5
H    10.4    1.3    5.4
H     7.9    6.3   -6.2
H     2.8   -9.9   -5.9
I     6.6    9.8    0.4
I    -3.9  -10.8   -2.7
H    10.0    0.0    6.3
H     7.1    4.8    8.2
C   -11.4   -3.4    0.6
H    -7.4   -7.6    5.4
I    -8.4    7.9   -2.9
H     3.1   -8.5    7.8
H   -10.6   -5.4    0.6
H    -1.4   -3.4  -11.3
H     8.3    4.8    7.1
I     4.1   -6.3   -9.3
H    -9.9   -2.7   -6.2
I    -3.9   -5.4   10.0
C    -6.6   10.0    0.7
C     2.0    9.9   -6.5
H   -11.4   -3.4    1.7
I     0.5   -6.3   10.2
P    -6.7   -3.7   -9.3
H    -5.1    9.3   -5.8
H    -6.3    9.2   -4.7
N    -6.0   -8.8   -5.7
H    12.0    1.1    1.6
P     6.8    0.7   10.0
I     0.3   11.6    3.5
I     0.3    7.8   -9.3
P     6.8    9.7   -2.9
I    -2.0    9.9    6.8
I    -4.8   -6.3   -9.3
H    -6.3   -8.9    5.4
H   -10.3   -4.1   -5.1
C    -6.2   -7.7    7.1
I    -0.4    7.0   10.0
I     6.6   -8.3   -6.1
I     5.0  -10.8   -2.7
P    11.3   -3.8   -2.9
I    11.0    5.3    0.4
I    -9.3    7.2    3.6
H    -6.4    8.9    5.4
N    -6.1    9.0   -5.7
P     6.6    9.7    3.6
P    11.2   -3.7    3.6
N    10.8    0.6    6.0
C    -6.9   -8.0   -6.5
I     4.0   11.4   -2.9
N    -7.0   -8.3    6.0
I     5.0   -5.4   10.0
C     2.0    1.0  -12.3
I    -4.1    7.1   -9.4
H    -9.4   -4.1    7.1
H    11.6    0.3   -4.7
H     3.1   -0.0   12.1
H     2.2    9.7   -7.6
P    -6.5   -3.7   10.0
H     3.0    9.4    7.8
H    -7.6    9.9    1.1
H   -10.3    4.9   -5.1
H    -6.9   -7.1    7.7
P    -2.2   -8.2   -9.3
H    12.6    0.1   -0.6
C    -2.4  -12.3    0.6
I     7.0   -8.0    6.8
C   -10.7   -3.3   -5.8
H     2.7   -0.9  -12.3
P    -6.7    5.2   -9.3
H    -1.8   12.5    0.6
H    11.4    0.0    5.4
H    -2.5  -12.3    1.7
I     9.4    7.9   -2.9
H    -1.4    5.5  -11.3
C     2.6   10.2    7.1
P    11.2    5.1   -2.9
C   -11.4    5.5    0.6
I    -8.6   -1.1   -9.3
I    -0.4   12.4   -2.9
