         400
 sphere cut out from bulk 
P     0.2   -0.1   -0.5
I    -1.0    2.0    1.5
I    -0.8   -2.3    1.6
I     2.7    0.1    1.6
I    -2.1   -0.2   -2.6
I     1.4    2.2   -2.5
P     0.2    0.0    3.7
I     1.7   -2.0   -2.6
H    -3.2    2.9   -0.0
H     3.8    2.1    0.5
H     3.2    2.8   -1.0
H    -3.9    1.8   -1.3
H    -0.1   -4.6    0.8
P     0.3   -0.1   -4.7
C    -4.0    2.7   -0.8
N     4.0    2.9   -0.2
H     1.0   -4.8   -1.4
H    -3.4   -2.9    2.7
H     3.9    3.8    0.3
H    -0.6    4.6    2.8
H    -0.7   -5.2   -1.4
H    -3.7   -2.0   -3.4
H     4.2   -1.3    3.2
H    -3.9    3.5   -1.6
N     0.2   -5.5    0.5
C     0.3   -5.5   -1.0
H     0.3    4.2   -3.7
H     4.0   -2.6   -3.4
H     1.2   -5.7    0.8
H     5.4    1.8   -1.3
H     1.2    5.1    2.7
H    -5.5    2.1    0.5
N    -5.3    2.9   -0.2
C     5.3    2.7   -0.8
I    -2.3   -0.1    5.7
H    -5.1   -1.3    3.2
C     0.2    5.4    3.1
H    -4.0   -1.4    4.5
C    -4.2   -3.2    3.4
I     1.5   -2.0    5.8
H    -0.4   -6.2    0.8
I     1.2    2.2    5.8
H     3.8   -2.1    4.6
N     4.6   -1.9    4.0
N    -4.4   -2.7   -3.8
H     4.3   -3.7    3.0
H    -4.0   -3.7   -3.4
N    -0.3    4.8   -4.4
N    -4.7   -1.9    4.0
H    -1.1    5.1   -3.8
H    -0.6    4.1   -5.1
H    -5.4    3.8    0.3
H     0.5   -6.5   -1.4
H     0.5    4.4    5.0
H     5.5    3.5   -1.6
H     6.1    2.9   -0.0
H    -6.1    2.8   -1.0
H    -3.8   -3.7    4.3
I    -6.6    0.1    1.6
H    -5.3   -2.6   -3.4
N     5.0   -2.7   -3.8
H     5.6   -2.0   -3.4
H    -5.0   -3.7    3.0
H    -0.1    6.4    2.8
C     5.1   -3.2    3.4
N     0.2    5.4    4.6
H     5.3   -1.4    4.5
H     5.9   -2.9    2.7
I    -1.1    2.2   -6.7
I     3.7    5.9    1.5
I    -0.9   -2.0   -6.9
H    -3.4   -3.0   -5.6
I    -3.3   -5.9   -2.7
I     3.5   -6.1    1.6
H     5.3   -3.7   -3.4
I     2.7    0.3   -6.8
I    -3.1    6.1   -2.7
C    -4.4   -2.7   -5.3
H    -0.8    5.5    5.0
H    -5.5   -2.1    4.6
H    -4.7   -1.7   -5.6
H     4.7   -1.7   -5.6
I     7.2   -0.2   -2.6
C     0.5    5.9   -5.0
C     4.9   -2.7   -5.3
H     1.4    5.4   -5.4
H     4.2   -3.5   -5.6
H     0.7    6.6   -4.2
P     0.2   -0.0    7.9
H     0.8    6.1    5.0
H     5.6   -3.7    4.3
I    -5.6    5.9    1.5
I    -7.6   -2.0   -2.6
H    -5.1   -3.5   -5.6
H    -4.2    1.6    7.0
I    -2.0   -8.0    1.5
H     0.8   -4.5    7.0
H    -0.1    6.3   -5.8
H     3.9    2.9    7.1
I    -5.8   -6.1    1.6
I    -8.0    2.2   -2.5
I    -2.0    8.2    1.5
H    -3.7    3.4    7.0
I     8.3    2.0    1.5
H    -0.8   -5.3    6.8
H    -3.5    2.6   -7.6
H     5.9   -3.0   -5.6
I    -3.1    5.9    5.7
H     5.1    1.6    7.0
I     6.1   -5.9   -2.7
I     2.5    8.1   -2.7
H     4.3    2.0   -7.6
P     0.2    0.2   -8.9
I     8.5   -2.3    1.6
I     2.6   -8.2   -2.7
I    -3.3   -6.1    5.7
C    -4.5    2.6    7.4
C     0.0   -5.1    7.5
P    -9.1   -0.1   -0.5
I     7.1   -0.1    5.7
I     6.3    6.1   -2.7
C     4.9    2.6    7.4
P    -4.4   -8.1   -0.6
P    -4.4    8.1   -0.6
H    -5.1    2.0   -7.6
H    -5.5    2.9    7.1
H    -0.4   -4.5    8.3
N    -4.4    2.8   -7.9
P     4.9   -8.1   -0.6
P     4.9    8.1   -0.6
H    -0.4   -4.3   -8.5
I    -6.7    0.3   -6.8
H     4.6    3.7   -7.5
P     9.6   -0.1   -0.5
H     5.6    3.4    7.0
H    -4.7    3.7   -7.5
H    -8.3   -4.8   -1.4
N     4.9    2.8   -7.9
P    -9.2    0.0    3.7
H     0.5    9.8   -1.4
I    -7.8   -2.0    5.8
P    -4.5    8.0    3.6
I     3.6   -6.1   -6.9
I     3.9    6.0   -6.9
H     5.9    2.6   -7.6
H    -8.1   -5.7    0.8
H    -8.2    5.1    2.7
P    -4.5   -8.2    3.6
P     4.8    8.0    3.6
I     2.4    7.9    5.8
H    -0.4   10.0    0.8
H     1.4   -5.9   -8.0
H     8.6   -5.2   -1.4
H    -3.5    2.4    9.2
H     0.9   -6.9    7.4
I    -8.1    2.2    5.8
P     9.5    0.0    3.7
P    -9.0   -0.1   -4.7
I    -0.9   -2.2    9.9
P     4.9   -8.2    3.6
N    -4.4    2.6    8.9
H     8.7    4.6    2.8
H    -0.1   -9.9    2.8
N     0.6   -6.3    8.1
I     6.2    5.9    5.7
I     6.0   -6.1    5.7
P    -4.3   -8.0   -4.8
I     2.6    0.1   10.0
H     9.2   -4.6    0.8
H     4.2    1.9    9.2
I    -1.1    2.0   10.1
H     8.2    5.1   -3.8
P    -4.4    8.2   -4.8
N     4.9    2.6    8.9
I     2.4   -8.4    5.8
I   -10.1   -2.3    1.6
H    -9.4   -4.6    0.8
C     0.0   -4.9   -9.3
H    -0.1   -6.7   -8.1
H     0.8   -9.7   -4.2
P     5.0   -8.0   -4.8
I    -5.4    6.0   -6.9
N    -9.1   -5.5    0.5
H    -9.0    4.2   -3.7
C    -9.0   -5.5   -1.0
I   -10.3    2.0    1.5
N     0.6   -6.1   -8.7
H     1.2   10.6    0.8
I    -1.9   -8.0   -6.9
H    -5.1    1.9    9.2
P     5.0    8.2   -4.8
P     9.6   -0.1   -4.7
H     0.8   -4.4   -9.8
H     1.3   -6.1    8.8
N     0.2   10.8    0.5
C    -4.4    2.8   -9.4
H    -4.2    1.8   -9.8
I     3.5   10.1    1.6
I    -5.7   -6.1   -6.9
C     0.3   10.8   -1.0
I     8.2    2.2   -6.7
H     8.7    4.1   -5.1
I    -6.8    8.1   -2.7
H     8.9   -6.2    0.8
H     4.6    3.5    9.3
H     3.9    3.1   -9.7
I    -3.0  -10.1   -2.7
I     7.3   -8.0    1.5
I    -6.8   -8.2   -2.7
C     4.9    2.8   -9.4
I    -1.9    8.3   -6.9
H    -4.8    3.5    9.3
H    -8.8   -6.5   -1.4
H    -3.7    3.5   -9.8
H    -0.2   -6.8    8.7
N     9.6   -5.5    0.5
H    -8.8    4.4    5.0
H    -7.9    5.4   -5.4
C    -9.2    5.4    3.1
I     8.4   -2.0   -6.9
I     3.8  -10.3    1.5
C     9.6   -5.5   -1.0
N     9.0    4.8   -4.4
I     7.3    8.2    1.5
H     9.6    4.2   -3.7
H    -0.7   11.1   -1.4
I    -3.3   10.3   -2.7
H     5.1    1.8   -9.8
H     5.8    2.4    9.2
I    10.7    2.2   -2.5
I    -2.2    0.1  -11.1
H    -9.9    4.6    2.8
H    -0.7   -5.2  -10.0
I     1.6   -1.8  -11.0
H     8.5    5.5    5.0
C     9.5    5.4    3.1
C     0.2  -10.9    3.1
H     0.8  -10.2    5.0
I     1.3    2.4  -11.0
H   -10.0   -5.2   -1.4
H    10.4   -4.8   -1.4
I    11.0   -2.0   -2.6
H    -0.1   -9.9   -5.8
H     9.2    6.4    2.8
N    -9.1    5.4    4.6
C     0.5  -10.4   -5.0
H     1.2  -11.2    2.7
H    -9.7   -6.2    0.8
N    -9.6    4.8   -4.4
H    -5.4    3.1   -9.7
H    -8.5    6.1    5.0
H     1.0   11.5   -1.4
H    -8.6    6.6   -4.2
H     1.0   -6.8   -9.4
H    -9.4    6.4    2.8
H    -0.1   11.7    0.8
C    -8.8    5.9   -5.0
I   -11.4   -0.2   -2.6
I    -5.8   10.1    1.6
H     5.6    3.5   -9.8
H    -1.1  -11.1   -3.8
I    -5.6  -10.3    1.5
N     0.2  -10.9    4.6
N     9.5    5.4    4.6
H    -0.8  -10.7    5.0
H     9.8    4.4    5.0
H     9.9   -6.5   -1.4
H   -10.0    4.1   -5.1
H     0.9    9.3    7.4
H    -8.5   -4.5    7.0
H    10.5    5.1    2.7
H    -0.6  -11.6    2.8
H    10.5   -5.7    0.8
I    -6.9    7.9    5.8
P    -4.4    8.0    7.8
I    -6.7    0.1   10.0
P    -9.1   -0.0    7.9
H    -3.4   -3.2   11.2
P     0.3   -0.2   12.1
I    -3.3   10.1    5.7
I     3.9    5.8    9.9
I    12.0    0.1    1.6
H     8.6   -5.3    6.8
P    -4.3   -8.3    7.8
I    -3.1  -10.3    5.7
H     1.4  -10.8   -5.4
P     5.0    8.0    7.8
I     6.3  -10.1   -2.7
H     4.6   -1.9   11.2
H   -10.4    5.1   -3.8
I     3.6   -6.2    9.9
I    10.6    2.2    5.8
H    -4.7   -1.9   11.2
I     6.0   10.3   -2.7
N    -0.3  -11.5   -4.4
I    -6.9   -8.4    5.8
P     9.5   -0.0    7.9
H    -0.7    3.9   11.7
P     5.0   -8.3    7.8
I    10.9   -2.0    5.8
I   -10.2   -2.0   -6.9
C     9.8    5.9   -5.0
H     4.2   -3.6   11.2
H   -10.1    5.5    5.0
H     9.2    6.3   -5.8
H    -0.2    9.6   -8.1
H     1.4    5.3   11.4
H     0.3  -12.0   -3.7
I   -10.4    2.2   -6.7
H    -0.2    6.1   11.0
C    -4.4   -2.9   11.5
H     0.5    4.6  -11.8
I    -5.4    5.8    9.9
H    10.1    6.6   -4.2
H    -9.5    6.3   -5.8
P    -9.1    0.2   -8.9
H    -8.0   -5.9   -8.0
H    -0.2    9.4    8.7
I     3.6   10.2   -6.9
H    10.1    6.1    5.0
H     0.5  -11.8    5.0
H    -5.1   -3.6   11.2
P    -4.3   -8.1   -9.0
N     0.5    9.9    8.1
C     4.9   -2.9   11.5
H    -0.8   10.9    6.8
H   -12.6    2.9   -0.0
H     3.8   -1.9  -12.2
P    -4.3    8.2   -9.0
I     7.4   -8.0   -6.9
H    12.6    2.8   -1.0
I   -11.6   -0.1    5.7
I    -1.9   -8.1    9.9
I    -1.9    8.1    9.9
H    -4.0   -1.2  -12.3
H     8.9   -4.5    8.3
I     3.9  -10.3   -6.9
C    -9.3   -5.1    7.5
C     9.3   -5.1    7.5
I    -3.3   -6.0  -11.1
H     5.9   -3.2   11.2
I    -5.7   -6.2    9.9
H     8.9   -4.3   -8.5
P     9.5    0.2   -8.9
I    -3.1    6.1  -11.1
I     6.0   10.1    5.7
P     5.0   -8.1   -9.0
H     3.9  -12.5    0.3
I     7.4    8.3   -6.9
C     0.5    5.7   11.8
P     5.0    8.2   -9.0
P     0.2    0.2  -13.1
I     7.1    0.1  -11.1
H    -8.4   -6.9    7.4
H    10.1   -4.5    7.0
H    -0.8    5.7  -11.8
H     1.3   10.3   -8.0
I     8.2    2.0   10.1
H    10.7    5.4   -5.4
I     8.4   -2.2    9.9
H    -0.6  -12.2   -5.1
H    -8.8    9.8   -1.4
N    -0.3    4.6   12.4
H   -10.1   -5.3    6.8
H    13.1    2.1    0.5
I     6.2  -10.3    5.7
H    -8.0   -6.1    8.8
N     0.6   10.1   -8.7
H   -12.7   -2.9    2.7
H    -3.9  -12.7   -1.6
H   -13.2    1.8   -1.3
H    -8.2   10.6    0.8
H     1.0    9.5   -9.4
N     0.2    5.5  -12.2
H     0.8    6.3  -11.8
H     8.9   10.0    0.8
H     5.3   -1.2  -12.3
C    -0.0   11.2    7.5
H    -5.5   -1.9  -12.2
H     1.3   10.2    8.8
I    -5.4  -10.3   -6.9
N    -8.8   -6.3    8.1
I    -5.7   10.2   -6.9
H    -3.7   -3.6  -12.5
H    -9.8   -4.5    8.3
H    -8.6   -9.7   -4.2
H     4.3   12.6    3.0
C   -13.3    2.7   -0.8
H    -9.7   -4.3   -8.5
N    13.3    2.9   -0.2
I    -7.8   -1.8  -11.0
H    -5.4  -12.5    0.3
H   -13.0   -2.0   -3.4
H    -8.5   -4.4   -9.8
H    -4.0   12.6   -3.4
H     0.8   11.7    7.0
H     0.3    4.1   13.1
N     4.6   -1.7  -12.8
H    13.2    3.8    0.3
H   -13.2    3.5   -1.6
