         400
 sphere cut out from bulk 
P    -0.4    0.4    0.5
I     1.6   -1.1   -1.5
I    -2.6   -1.9    0.1
I    -1.7    1.9   -2.1
I     0.9   -1.2    3.0
I     1.7    2.8    0.8
H     3.8   -0.5   -0.3
H    -2.3   -1.9   -2.4
I    -2.4    2.0    2.5
H     0.6    2.5   -3.1
H    -1.6   -1.1   -3.7
H     1.5   -3.9   -0.5
H    -2.0   -1.2    3.5
N    -2.4   -1.7   -3.5
H     4.2    1.1    1.5
H     1.2    2.6    3.7
N     4.7   -0.5    0.2
H     0.7   -4.5    1.8
N     1.4    3.1   -3.6
H     2.2    2.5   -3.6
H     4.7   -1.2    0.9
H    -3.3   -1.2   -3.6
C     5.0    0.9    0.7
H    -1.3    4.9   -0.5
C     1.5   -4.9   -0.1
H    -5.0    0.9    1.2
H    -2.1    4.4    1.7
H     5.0    1.6   -0.1
C    -2.8   -1.7    4.1
H     1.5    4.0   -3.1
H     0.4    1.7    5.0
N     1.6   -5.0    1.4
H    -3.0   -2.7    3.6
H     2.4   -4.5    1.7
C     1.2    2.3    4.8
H     0.6   -5.4   -0.5
H    -5.4   -0.8   -0.5
H    -1.4   -3.5   -4.0
H     5.5   -0.8   -0.5
P     3.2   -2.3   -4.1
H    -3.7   -1.2    4.1
C    -2.3   -3.0   -4.3
H     2.1    1.8    5.0
H    -3.1    4.9   -0.5
C    -2.2    5.4   -0.1
H     2.4   -5.4   -0.5
N    -2.1    5.4    1.4
H     0.7    2.4   -5.5
C    -5.9    0.9    0.7
C     0.9    3.3   -5.0
H    -5.9    1.6   -0.1
H     5.9    0.9    1.2
H    -1.4   -2.5    5.4
N    -6.2   -0.5    0.2
H    -1.2    5.9    1.7
H    -3.2   -3.6   -4.0
N    -2.3   -2.0    5.5
H    -0.0    3.9   -4.9
I     4.7   -3.4    2.4
I     1.6   -0.4   -6.1
P     3.2   -2.1    5.0
P    -4.0   -4.9    0.5
H    -6.2   -1.2    0.9
H     1.5   -5.9    1.7
P     3.2    5.5    0.5
P    -4.1    2.9   -4.0
H    -2.2   -1.1    5.9
H    -2.4   -2.7   -5.3
I     5.4    0.1   -3.6
I    -2.1   -5.5    3.0
I    -5.5    0.1   -3.6
I     1.2   -4.7   -4.4
I     4.8    0.6    4.6
I    -2.0   -6.2   -1.6
N     1.2    3.6    5.6
I     1.3    6.3   -2.1
I     5.0   -4.1   -2.1
H     0.3    4.1    5.4
H    -2.9    5.9    1.8
H    -2.2    6.5   -0.5
I     5.3    4.2   -1.6
H     1.6    3.9   -5.5
H    -6.7    1.1    1.5
H     2.0    4.2    5.3
H    -7.1   -0.5   -0.3
P    -4.1    3.0    5.0
H    -3.1   -2.5    6.0
I    -5.6    4.2   -1.6
I    -2.5    1.7   -6.6
I     1.0    7.0    2.4
I    -6.2   -3.4    2.4
I    -2.4    1.2    7.0
I    -5.9   -4.1   -2.1
H     1.2    3.4    6.6
I     1.7   -5.0    5.4
I    -2.4    5.7   -4.4
I     1.6   -0.9    7.5
I    -6.1    0.6    4.6
I     5.1    4.9    3.0
I    -1.9    5.4    5.4
I    -5.8    4.9    3.0
H     7.2   -1.2    4.1
P    -0.4   -7.4   -4.0
P     6.9   -4.9    0.5
P     6.8    2.9   -4.0
I     4.5    3.9   -6.1
I     8.3   -1.9    0.1
H     4.4    0.6   -7.3
H     7.6   -1.2   -3.6
P    -0.3    0.2   -8.6
H     0.6   -4.2   -7.6
H     5.2   -6.4   -3.1
H    -4.8    0.6   -7.3
I    -1.9   -2.5   -8.2
I     1.3   -8.4    2.5
H     4.0    6.8   -4.0
P    -0.5   -7.3    5.0
I     5.0   -3.3   -6.6
H     3.6   -6.5   -4.9
P     6.8    3.0    5.0
I     2.0   -8.5   -2.1
P    -7.7   -2.3   -4.1
H     5.2   -0.9   -7.3
H    -2.3   -8.8   -0.1
P    -0.5    8.1   -4.1
I     8.5    2.0    2.5
H     8.6   -1.9   -2.4
H     7.9   -2.7    3.6
H    -5.7   -6.4   -3.1
H     4.0   -6.3    5.4
C     8.1   -1.7    4.1
H     1.1    9.1    0.9
H     7.8    4.9   -0.5
H     2.4   -4.4   -7.8
I    -2.7   -6.5   -6.1
N     5.2    0.1   -7.7
I    -5.3   -3.2    6.9
H    -2.5    3.8   -8.1
I     5.3   -7.6    0.8
H    -5.7   -0.9   -7.3
N     8.5   -1.7   -3.5
H     7.7   -3.6   -4.0
H     4.3   -7.8   -3.1
I     5.6   -3.2    6.9
H    -5.1    6.9   -4.0
P    -7.7    5.5    0.5
I    -5.6   -7.6    0.8
I    -5.9   -3.3   -6.6
P    -7.7   -2.1    5.0
I    -9.3   -1.1   -1.5
H     4.3    7.7    3.6
C     1.4   -4.4   -8.3
H     4.1   -0.1    8.6
P    -0.4    0.4    9.5
N    -5.7    0.1   -7.7
I     1.1    3.1   -9.0
N     5.0   -7.3   -3.6
H     6.1    0.6   -7.3
I    -2.0    9.2   -1.5
I    -6.4    3.9   -6.1
H     8.9   -1.2    3.5
I     4.6    8.4    0.1
I    -9.2    2.8    0.8
P    -0.5    8.2    5.0
I     9.2    1.9   -2.1
H    -1.3   -9.5    1.2
H     1.3   -3.5    9.0
H    -5.3   -6.1    5.3
H    -8.7    2.5   -3.6
I     1.3    7.1   -6.6
H    -6.5    0.6   -7.3
H    -8.5   -4.5    1.7
C     4.5   -7.0   -5.0
I     0.9    3.4    9.1
H     1.8    9.6   -0.5
C    -2.3   -9.5    0.7
H     0.2    9.8   -0.3
H    -5.0   -0.1    8.5
H    -1.8    4.5    8.5
C     4.9    7.4   -4.3
H    -1.3    5.9   -7.8
H     5.8    6.9   -4.0
H     4.8   -7.8    3.7
H    -3.1   -9.3    1.5
H     5.6   -6.1    5.3
N     1.1    9.9    0.2
H     1.4   -3.7   -9.1
H    -5.0   -7.8   -3.6
I    -2.1   -6.2    7.5
H     8.8    4.4    1.7
H     5.3   -6.5   -5.5
N     4.8   -6.8    5.6
C     8.6   -3.0   -4.3
I    -2.8    9.2    3.0
N    -5.9   -7.3   -3.6
I     5.2    4.2    7.5
H     5.0    1.4    8.6
H     4.9    8.5   -2.4
H     9.3   -1.1   -3.7
H     8.0    5.9    1.8
I     1.9    7.2    6.9
H    -8.5   -5.4   -0.5
H    -5.6   -6.5   -5.5
H     7.8   -2.5    6.0
H    -9.4   -3.9   -0.5
H    -3.0    6.1   -7.6
C     5.1    0.4    8.9
H    -8.8    1.8    5.0
N    -2.5    4.6   -8.9
I    -2.0   -2.3    9.8
C     8.7    5.4   -0.1
I    -5.7    4.2    7.5
H     0.1   -5.6    8.7
N     8.6   -2.0    5.5
H     5.9   -0.1    8.5
N     8.8    5.4    1.4
H     8.5   -2.7   -5.3
H     4.3   -0.4   -9.5
C    -2.2    5.9   -8.3
C    -6.0    7.4   -4.3
H     5.9   -7.8   -3.6
H    -6.9    6.8   -4.0
H    -5.9    1.4    8.6
H     1.2   -6.5   -8.1
H     1.8   -5.8    8.5
P     3.3  -10.0    0.5
I    -6.3    8.4    0.1
C     4.4    8.6    4.1
H    -3.5    4.7    8.7
P    10.5    0.4    0.5
H     4.9    7.7   -5.3
N     4.9    8.7   -3.5
H    -6.1   -7.8    3.7
C     4.9   -8.0    4.8
C     5.2    0.1   -9.2
I   -10.0   -1.2    3.0
H    -1.7    4.3   -9.5
H     8.7   -1.1    5.9
C    -9.4   -4.9   -0.1
P    -4.0   -4.9   -8.6
N    -9.5    3.1   -3.6
H     4.4   -8.0   -5.5
H     4.0    9.2   -3.6
H     3.5    9.2    4.1
C    -5.8    0.4    8.9
N    -6.1   -6.8    5.6
H    -6.0    8.5   -2.4
N     1.2   -5.8   -8.9
P     3.3    5.5   -8.6
H    -9.4    4.0   -3.1
N    -9.3   -5.0    1.4
H    -6.6   -7.8   -3.1
N    -2.6    4.8    9.2
C    -6.4   -7.0   -5.0
H     4.2    7.8    6.0
H    -9.7    2.6    3.7
C     1.3   -4.2    9.8
H    -4.8   -0.4   -9.6
H    -6.6    7.7    3.6
H     4.9   -7.0    6.6
I     8.8   -5.5    3.0
H     4.0   -8.6    5.0
H    -6.9   -6.3    5.4
I     1.7   -1.1  -10.6
C    -5.7    0.1   -9.2
N     1.1   -5.6    9.2
H    -5.1    7.8    5.4
H     9.6    4.9   -0.5
I     8.4    1.7   -6.6
H     5.2    1.2   -9.5
H     8.7    6.5   -0.5
H     9.5   -3.5   -4.0
H    -6.8   -0.1    8.6
H    -7.3   -6.5   -4.9
H    -3.4    4.5   -9.4
I     8.9   -6.2   -1.6
I     1.1   -8.7   -6.6
H   -10.3    2.5   -3.1
C    -9.7    2.3    4.8
H     0.3   -5.8   -9.4
H    -2.6    4.1   10.0
I    -2.5   -9.8    4.6
I    -1.8  -10.3   -3.6
I     8.5    1.2    7.0
I     8.5    5.7   -4.4
N    -6.0    8.7   -3.5
H    -6.0    7.7   -5.3
C    -6.0   -8.0    4.8
I    -9.3   -0.4   -6.1
N     4.9    8.4    5.5
H     5.2    9.2    3.5
H    -5.1   -8.6    5.0
H    -5.7    1.2   -9.5
N    -2.5  -10.9    0.2
H     5.8    7.8    5.4
I     1.8   10.4   -3.6
H     9.5   -2.5    5.4
H    -9.4   -5.9    1.7
H     0.5   -4.0   10.5
H    -8.9    4.2    5.3
H   -10.2   -4.5    1.8
H    -1.7  -11.1   -0.5
H    -5.2    9.3   -3.7
P   -11.3    0.4    0.5
C     1.3   11.2    0.7
H     6.1   -0.4   -9.6
H    -6.0   -7.0    6.6
H     2.3   -4.2   10.3
I    -2.2    1.0  -11.1
P    -4.1   -4.7    9.5
H    -5.7    9.2    3.5
H     9.7    5.9    1.7
H    -3.4  -10.9   -0.3
H     1.9   -6.1   -9.5
H    -9.3    3.9   -5.5
H     5.7    9.3   -3.7
H     5.8   -8.6    5.0
H    -2.2    6.6   -9.1
P    -4.1   10.7    0.5
C    -6.5    8.6    4.1
H     2.3   11.2    1.2
P     3.2    5.7    9.5
H    -2.4    6.9    9.0
H     0.5   11.4    1.5
N     5.1    0.3   10.4
I     1.3   -9.2    7.0
H    -6.6   -0.4   -9.5
I    -9.6    6.3   -2.1
N    -6.0    8.4    5.5
I    -9.7   -4.7   -4.4
H     4.3    0.8   10.8
C   -10.0    3.3   -5.0
H   -10.3   -5.4   -0.5
H    -6.5   -8.0   -5.5
I    -9.2   -5.0    5.4
N    -9.7    3.6    5.6
I     9.0    5.4    5.4
H   -10.2    2.4   -5.5
C    -2.4    6.2    9.8
H   -10.5    1.7    5.0
H     1.0   -6.3   10.0
H    -4.9    0.8   10.7
I    -2.1   10.0   -6.1
H     5.1   -0.6   10.7
I    -2.6    1.9   11.4
N    -5.8    0.3   10.4
H    -2.5  -11.6    0.9
H    -6.7    7.8    6.0
I     1.1   11.0    4.6
I    -9.3   -0.9    7.5
H     1.3    3.2  -11.5
H     1.3   11.9   -0.1
H    -6.9    9.2   -3.6
P     6.9   -4.9   -8.6
H    -1.4    6.2   10.3
I     1.5   -0.2   12.0
I     8.2   -6.5   -6.1
H     1.6    9.5   -7.3
H     0.4  -11.6   -3.6
H     5.1    9.3    5.9
H    -6.9   -8.6    5.0
H     1.6  -11.5    3.5
I    11.8   -1.2    3.0
H    -9.7    3.4    6.6
H    11.5    2.5   -3.1
H     2.1  -11.4   -3.7
H    -5.8   -0.6   10.7
H     7.8   -9.3    1.5
I    -2.1    9.5    7.5
H    -0.1  -11.6    4.1
H    -1.1   -9.8   -7.3
H     8.4    3.8   -8.1
H     6.0    0.8   10.7
H     8.6   -8.8   -0.1
I    -9.9    7.0    2.4
I     1.0  -12.3    0.1
H    -8.5   -4.4   -7.8
H     7.4    4.7    8.7
H    -2.1   -1.3  -12.1
I     4.6   -7.0    9.1
I     4.7   -7.2   -9.0
I     5.3    3.9  -10.6
H    11.3    1.7    5.0
H    -5.8    9.3    5.9
I     9.0   -2.5   -8.2
H    -7.4    9.2    4.1
H    -2.8   -9.8   -7.3
I    -8.9   -8.5   -2.1
I    -1.9   -6.4  -10.6
H    10.9    3.9   -4.9
H     7.9    6.1   -7.6
I     5.4    7.8   -8.2
I    -5.6    3.9  -10.6
H    -2.2   -8.9    8.6
P    -7.6  -10.0    0.5
I     8.1    9.2    3.0
H     1.3  -12.3   -2.4
H   -10.6    4.1    5.4
H    11.6   -4.5    1.8
P     6.8   -4.7    9.5
