         400
 sphere cut out from bulk 
I    -0.9    0.2    0.0
P     1.1   -2.3    0.0
H     0.7    2.1   -1.9
H     0.7    2.5    1.8
H     1.5    0.5    3.0
H     0.9    1.0   -3.3
C     0.7    2.0   -3.0
I     3.7   -0.3    0.0
C     0.7    2.5    2.9
H    -0.3    2.2    3.2
H    -3.0   -2.0    1.8
P    -3.4    2.2    0.0
N     1.7    1.5    3.4
I     1.4   -2.2    3.2
H    -0.3    2.4   -3.4
H    -2.9   -2.4   -1.9
I     1.4   -2.3   -3.2
H    -1.9   -2.1   -3.4
H    -2.0   -2.3    3.2
H     2.7    1.8    3.1
I    -1.4   -4.3    0.0
C    -2.9   -2.0    2.9
H    -3.2   -1.0    3.3
C    -2.9   -2.4   -3.0
H     1.0    3.5    3.3
N     1.7    3.0   -3.4
I    -1.4    4.7    0.0
H     2.7    2.7   -3.1
H    -3.8   -0.5   -3.1
H     1.8    1.5    4.4
I     3.0    4.1    0.0
I    -5.3   -0.3    0.0
H     1.6    4.0   -3.1
I    -3.6    2.1   -3.2
H     4.0   -1.7   -3.1
I    -3.6    2.3    3.2
N    -4.0   -1.5   -3.4
I     3.0   -4.8    0.0
H     1.8    3.0   -4.5
H    -3.1   -3.4   -3.3
H     4.0   -2.7    3.1
P     5.6    2.2    0.0
N    -4.0   -3.0    3.4
H     5.1   -0.5   -3.1
H    -4.9   -1.7   -3.1
H     1.6   -5.0   -3.1
N     4.9   -1.5   -3.4
H    -4.0   -1.5   -4.5
H    -3.8   -3.9    3.0
I    -0.6    0.6   -6.3
H    -4.9   -2.7    3.1
H     1.0   -5.5    3.3
I    -1.6   -0.6    6.3
H     5.9   -2.0    1.8
I     5.3    2.1   -3.2
I     5.3    2.3    3.2
H     5.7   -1.0    3.3
H    -4.0   -3.0    4.4
N     5.0   -3.0    3.4
H     0.7   -6.5    1.8
H     6.0   -2.4   -1.9
P     1.1    6.7    0.0
H     4.9   -1.5   -4.5
P     1.1   -2.2   -6.5
C     6.0   -2.0    2.9
P     1.1   -2.3    6.4
H    -3.8    5.0    3.0
N     1.7   -6.0   -3.4
C     0.7   -6.5    2.9
C     6.0   -2.4   -3.0
H     0.7   -6.9   -1.9
H    -6.2    1.8    3.1
H    -3.1    5.5   -3.3
H     5.1   -3.9    3.0
I    -5.9    4.1    0.0
I     2.9    0.4    6.6
H     4.9   -3.0    4.4
H    -0.3   -6.6   -3.4
H    -2.9    6.6   -1.9
I    -0.6    3.9    6.3
H     2.7   -6.2   -3.1
H    -6.2    2.7   -3.1
H     5.8   -3.4   -3.3
I     1.4    6.6   -3.2
H    -0.3   -6.8    3.2
C     0.7   -6.9   -3.0
P    -3.4   -6.7    0.0
P    -3.3    2.1    6.4
I    -1.6   -3.9   -6.3
I    -5.9   -4.8    0.0
I     1.4    6.8    3.2
P    -3.3    2.3   -6.5
H    -2.0    6.6    3.2
H     1.8   -5.9   -4.5
I     3.8   -0.4   -6.6
C    -2.9    6.5   -3.0
H    -3.0    6.9    1.8
H     5.1    5.0    3.0
H    -1.9    6.8   -3.4
N    -4.0    6.0    3.4
H    -7.4    0.5    3.0
H     4.0    6.2    3.1
H     7.0   -2.3    3.2
H     7.0   -2.1   -3.4
I     8.1    0.2    0.0
I    -0.6   -5.0    6.3
C    -2.9    6.9    2.9
N    -7.2    1.5    3.4
P    -7.8   -2.3    0.0
I    -1.6    5.0   -6.3
I    -3.6   -6.6    3.2
H     2.7   -7.2    3.1
I     2.9    4.1   -6.6
I    -3.6   -6.8   -3.2
N     1.7   -7.4    3.4
I    -5.1   -0.4   -6.6
H    -4.0    5.9    4.4
N     5.0    6.0    3.4
I    -7.5   -2.2    3.2
N    -7.2    3.0   -3.4
H    -4.9    6.2    3.1
H    -7.2    1.5    4.4
I    -7.6   -2.3   -3.2
H     0.9   -7.9   -3.3
H     5.8    5.5   -3.3
H     0.5    1.6   -8.5
I     7.5   -4.3    0.0
I     3.8   -4.1    6.6
I     2.9   -4.9   -6.6
H    -8.0    1.0   -3.3
H    -8.3    2.1   -1.9
H    -8.2    2.5    1.8
P     5.6   -6.7    0.0
I    -0.9   -8.7    0.0
P     5.6    2.1    6.4
H     4.0    7.2   -3.1
P     5.6    2.3   -6.5
H     1.8   -7.5    4.4
I     7.5    4.7    0.0
H     4.9    5.9    4.4
H     0.4    2.8    8.4
H    -7.4    4.0   -3.1
H    -7.1    3.0   -4.5
I    -6.1    0.4    6.6
H    -2.6   -1.6    8.4
C    -8.2    2.0   -3.0
C    -8.2    2.5    2.9
I     3.8    4.9    6.6
H     1.5   -8.4    3.0
H     6.0    6.6   -1.9
I     5.3   -6.6    3.2
N    -4.0    7.4   -3.4
H    -3.2    7.9    3.3
I    -0.9    9.2    0.0
I     5.3   -6.8   -3.2
H    -4.9    7.2   -3.1
H    -7.9    3.5    3.3
I    -5.1   -4.1    6.6
P     1.1    6.6    6.4
H     5.9    6.9    1.8
H    -6.2   -6.2   -3.1
I     3.7    8.6    0.0
C     6.0    6.5   -3.0
H    -2.7   -2.9   -8.5
H    -7.4   -5.0   -3.1
P     1.1    6.8   -6.5
H     8.6    2.2    3.2
H     8.6    2.4   -3.4
N     4.9    7.4   -3.4
C     6.0    6.9    2.9
H    -4.0    7.5   -4.5
I    -5.1    4.9    6.6
I     7.3   -0.6    6.3
N     0.5    1.7   -9.5
H     1.3    0.9    9.6
H    -3.8    8.4   -3.1
I    -9.8    0.2    0.0
P    -3.3   -6.6   -6.5
I    -6.0    4.1   -6.6
N     0.5    2.8    9.5
H     0.7    0.7   -9.9
I     0.9   -2.0   -9.7
P    -3.3   -6.8    6.4
N    -7.2   -6.0   -3.4
H     9.6    2.1   -1.9
I     3.7   -9.3    0.0
H    -9.2    2.2    3.2
H    -6.2   -7.2    3.1
N    -2.7   -1.6    9.5
H     4.9    7.5   -4.5
I     0.9   -2.5    9.7
H    -0.5    1.9   -9.8
H     1.5    9.5    3.0
I    -5.3    8.6    0.0
H    -9.2    2.4   -3.4
H     2.5    2.2    9.5
H     9.6    2.5    1.8
H     7.0    6.6    3.2
H    -0.5    2.6    9.8
H    -1.8   -1.9    9.8
H    -7.9   -5.5    3.3
I    -6.0   -4.9   -6.6
H    -2.9   -0.7    9.8
C     1.5    1.9    9.9
H     2.5    2.3   -9.7
P    -7.8    6.7    0.0
C     9.6    2.0   -3.0
H    -3.5   -0.8   -9.6
H    -7.1   -5.9   -4.5
P    10.0   -2.3    0.0
N    -2.7   -2.8   -9.5
H     5.7    7.9    3.3
H    -1.8   -2.6   -9.8
H     7.0    6.8   -3.4
I    -3.1    2.0    9.7
H     5.1    8.4   -3.1
C     9.6    2.5    2.9
P    -7.8   -2.2   -6.5
H     1.3    3.6   -9.6
P    -7.8   -2.3    6.4
H     0.4   -6.1    8.4
I     7.3   -3.9   -6.3
I     8.3    0.6   -6.3
H     9.8    1.0   -3.3
I    -3.1    2.5   -9.7
C     1.5    2.6  -10.0
I    -0.6   -8.4   -6.3
H     0.7    3.8    9.8
I    -7.6    6.6   -3.2
H     0.9   10.0   -3.3
H    -8.2   -6.5    1.8
I    -1.6    8.4    6.3
H     6.3   -1.6    8.4
I    -7.5    6.8    3.2
H     4.2   -2.3    9.5
H    -3.8   -9.4   -3.1
I    -5.3   -9.3    0.0
H     4.2   -2.1   -9.7
H    -2.7    6.1   -8.5
P     5.6   -6.6   -6.5
C    -8.2   -6.5    2.9
H    -3.5   -3.6    9.6
C    -3.7   -1.8  -10.0
H    -4.7   -2.3    9.5
N    -7.2   -7.4    3.4
I     7.3    5.0   -6.3
P     5.6   -6.8    6.4
H    -8.3   -6.9   -1.9
H    10.4    0.5    3.0
H     6.2   -2.9   -8.5
H    -3.2   -9.9    3.3
C    -3.8   -2.6    9.9
H    -2.9   -3.8   -9.9
H    -4.7   -2.1   -9.7
H     9.9    3.5    3.3
I    10.3   -2.2    3.2
I    10.3   -2.3   -3.2
H     0.7   -5.1    9.8
H     1.3   -5.3   -9.6
H     5.4   -0.8   -9.6
I     8.3    3.9    6.3
N     1.7   10.4    3.4
I   -10.3   -4.3    0.0
C    -8.2   -6.9   -3.0
I     2.9   -8.5    6.6
H     5.1   -9.4   -3.1
H     0.7   11.0   -1.9
H     0.5   -7.3   -8.5
H    -7.2   -7.5    4.4
P     1.1  -11.2    0.0
N    10.6    1.5    3.4
N     0.5   -6.1    9.5
I   -10.3    4.7    0.0
H     1.6    1.9   11.0
H     8.6   -6.6   -3.4
C     0.7   11.0   -3.0
I    -0.6    9.5   -6.3
C     5.2   -1.8  -10.0
H     1.8   10.4    4.4
N     6.2   -1.6    9.5
H     2.7   10.7    3.1
I    -9.5    0.6   -6.3
I     5.8    2.0    9.7
H     8.6   -6.8    3.2
H    -3.0  -10.9    1.8
I     3.8    8.5   -6.6
H    -2.6    7.3    8.4
C     5.1   -2.6    9.9
I    -1.6   -9.5    6.3
H     6.0   -0.7    9.8
H    -2.9    5.2   -9.9
H     1.5    2.6  -11.1
H    -3.5    5.3    9.6
I     8.3   -5.0    6.3
I     5.8    2.5   -9.7
H    -0.3   11.1    3.2
H   -10.9   -2.1   -3.4
H     5.4   -3.6    9.6
H     0.7   11.4    1.8
H   -10.9   -2.3    3.2
N    10.7    3.0   -3.4
H    -7.4   -8.4    3.0
P    -3.4   11.1    0.0
H    10.5    4.0   -3.1
H    10.7    1.5    4.4
I     0.9    6.4    9.7
N    -2.7    6.1   -9.5
I     1.4  -11.1    3.2
N    -4.0  -10.4   -3.4
C    -2.9  -10.9    2.9
H    -6.4    2.2    9.5
H    -2.0  -11.0   -3.4
N     6.2   -2.8   -9.5
H    -8.0   -7.9   -3.3
H    -0.5   -6.4    9.8
H     9.6   -6.5    1.8
H     9.9   -5.5    3.3
H    -9.2   -6.6   -3.4
I     2.9    9.3    6.6
C     0.7   11.4    2.9
I     1.4  -11.3   -3.2
H    -0.3   11.3   -3.4
H     4.0  -10.7   -3.1
H    -6.4    2.3   -9.7
H    -2.9  -11.3   -1.9
H    -3.7   -1.8  -11.1
H    -1.8    6.4   -9.8
H    -9.2   -6.8    3.2
H    -2.0  -11.2    3.2
I     8.1   -8.7    0.0
H     9.6   -6.9   -1.9
I     0.9    6.9   -9.7
H     5.7   -9.9    3.3
H     2.5   -6.7    9.5
C     1.5   -6.3  -10.0
H    -3.8   -2.5   11.0
C     9.6   -6.5    2.9
I    -5.1    8.5   -6.6
H     2.5   -6.6   -9.7
N     0.5   -7.3   -9.5
H    10.7    3.0   -4.5
H    10.5   -5.0   -3.1
H    -4.0  -10.4   -4.5
N     4.9  -10.4   -3.4
I    -3.1   -6.5   -9.7
P    10.0    6.7    0.0
I     3.8   -9.3   -6.6
I    -9.5    3.9    6.3
H    -8.4    1.6   -8.5
I    -3.6   11.1   -3.2
P    -7.8    6.6    6.4
C    -2.9  -11.4   -3.0
H    -0.5   -7.0   -9.8
P    10.0   -2.2   -6.5
H    11.6    1.8    3.1
H     6.0   -3.8   -9.9
P    10.0   -2.3    6.4
H    -4.9  -10.7   -3.1
H     6.2    6.1   -8.5
H   -11.9   -2.0    1.8
C     9.6   -6.9   -3.0
H   -11.8   -2.4   -1.9
P    -7.8    6.8   -6.5
I     8.1    9.2    0.0
H    -1.8    7.0    9.8
I    -3.6   11.2    3.2
H     5.4    5.3    9.6
I   -10.5   -0.6    6.3
N    -2.7    7.3    9.5
H    -7.6    0.9    9.6
C     1.5   -7.0    9.9
H     7.1   -1.9    9.8
H    -8.5    2.8    8.4
H    11.6    2.7   -3.1
I    -3.1   -7.0    9.7
H     4.9  -10.4   -4.5
H     2.7   11.7   -3.1
C   -11.9   -2.0    2.9
H     4.2    6.7    9.5
I    -6.1   -8.5    6.6
H    -7.4    9.5    3.0
C    -3.8    6.4    9.9
H     5.2   -1.8  -11.1
H     5.1   -2.5   11.0
C   -11.8   -2.4   -3.0
H     7.1   -2.6   -9.8
P     5.6   11.1    0.0
P   -12.3    2.2    0.0
I    -9.5   -5.0    6.3
C    -7.4    1.9    9.9
N     1.7   11.9   -3.4
H     4.2    6.8   -9.7
I    -5.1   -9.3   -6.6
H    -4.7    6.7    9.5
H     5.9  -10.9    1.8
I    12.6   -0.3    0.0
H   -12.1   -1.0    3.3
H     1.3   -8.1    9.6
I    10.3    6.6   -3.2
I    11.9    4.1    0.0
