         400
 sphere cut out from bulk 
P    -0.1   -0.0    0.3
I     1.8    0.5   -2.3
I    -2.6   -0.5   -1.6
I    -0.5    3.1    0.4
I     0.7   -3.2    0.2
I     2.5    0.4    2.3
I    -1.9   -0.5    2.9
H     0.1   -2.3   -3.0
H     3.2    2.3    0.7
H     2.7    3.2   -0.6
H    -0.5    2.2    3.6
H     0.4    1.8   -3.8
H    -0.3   -2.3    3.8
H    -3.4    3.0    0.5
H     3.2   -3.2   -0.4
H    -3.1   -3.2    1.3
N     3.4    3.2    0.2
H    -4.0    2.2   -1.0
C    -0.3   -3.2   -3.4
H    -1.4   -3.2   -3.3
H    -4.2   -2.4   -0.7
H     4.2   -2.3    1.6
H     0.1   -4.1   -3.0
C    -4.0    3.1   -0.4
H     3.3    4.0    0.8
N     0.0    2.3   -4.7
H     4.7   -2.4   -0.7
C    -0.4    3.1    4.2
H    -0.9    1.9   -4.9
N     4.3   -3.2   -0.3
N     0.1   -3.2    4.3
H     1.1   -3.2    4.2
H     1.7    3.2    4.0
C    -4.2   -3.2    1.2
H    -4.6   -2.3    1.6
H     4.9    2.2   -1.0
H    -0.6    4.0    3.7
H    -0.6    4.0   -3.7
H    -0.3   -4.0    3.8
N    -4.6   -3.2   -0.3
H    -3.8    4.0   -0.9
C     4.8    3.1   -0.4
C     4.6   -3.2    1.2
N     1.0    3.2    4.8
N     0.1   -3.2   -4.9
H    -0.4   -2.4   -5.3
H    -4.2   -4.0   -0.7
H     0.6    2.0   -5.5
C    -0.0    3.8   -4.6
H     1.2    2.3    5.4
H     1.1   -3.2   -5.0
H    -1.1    3.1    5.1
P     4.3   -0.0   -4.2
H     4.2   -4.1    1.6
H    -5.7    2.3    0.7
P    -4.5   -0.0   -4.2
H     1.0    4.1   -4.4
H     4.7   -4.0   -0.7
H     5.5    3.0    0.5
N    -5.4    3.2    0.2
P    -0.0    6.3    0.3
P    -0.1   -6.3    0.3
H    -4.6   -4.1    1.6
I    -3.8    3.1   -4.2
H     5.0    4.0   -0.9
I     6.2   -0.5   -1.6
H    -5.6   -3.2   -0.4
I     3.6   -3.2   -4.3
I    -1.9   -0.5   -6.2
I     2.0    5.8   -2.2
P    -4.4   -0.0    4.9
P     4.4   -0.0    4.9
C    -0.3   -3.2    5.7
I    -2.6   -5.8   -1.7
H     0.2   -2.3    6.2
H     5.7   -3.2    1.3
H    -0.4   -4.0   -5.3
I    -6.3    0.4    2.3
I     2.5    5.8    2.3
I    -1.9   -5.8    2.9
H    -1.3   -3.2    5.8
H     1.1    4.0    5.4
I     3.7   -3.2    4.8
H    -5.6    4.0    0.8
H    -0.5    4.2   -5.5
H    -6.1    3.2   -0.6
I    -4.0    3.1    4.9
I     1.9    0.5    6.9
I     2.4    0.5   -6.8
I     5.1    3.1   -4.2
I    -7.0    0.5   -2.3
I     1.9   -6.8   -2.2
I    -2.5    6.8   -1.7
H     0.2   -4.1    6.2
I    -5.2   -3.2   -4.3
I     7.0   -0.5    2.9
I     2.5   -6.8    2.3
I     4.9    3.1    4.9
I    -1.9    6.8    2.9
I    -5.1   -3.2    4.8
I    -2.6   -0.5    7.5
I     6.3   -5.8   -1.7
P     4.4    6.2   -4.2
I    -2.0   -5.8   -6.2
P    -4.4    6.2   -4.2
I    -8.2   -3.2    0.2
H     7.5   -3.2   -3.3
P     8.8   -0.0    0.3
P     4.4   -6.3   -4.2
H    -7.2    3.2    4.0
P    -4.5   -6.3   -4.2
P    -8.9   -0.0    0.3
P    -0.1   -0.0   -8.9
H     4.2   -2.3   -7.5
I    -6.3    5.8    2.3
I     8.3    3.1    0.4
H     0.2    8.5   -3.0
H     4.0    2.3   -7.8
P    -4.4    6.3    4.9
P    -4.4   -6.3    4.9
P     4.4   -6.3    4.9
H    -3.2   -3.2   -7.9
P     4.5    6.3    4.9
H    -4.7   -2.3   -7.5
I    -0.8    3.1   -8.6
H     3.2   -8.6    0.8
I     1.9    5.8    6.9
I    -6.9    5.8   -2.2
I     2.5    5.8   -6.8
H    -3.4    3.1   -8.1
I     6.9   -0.5   -6.2
H    -7.7   -3.2    4.2
H    -0.6   -8.6    3.7
H     8.3    2.2    3.6
H    -0.7   -8.6   -3.7
I    -6.4    0.5   -6.8
P    -0.0    0.0    9.4
H    -0.3    8.6    3.8
I    -1.9    6.8   -6.2
I     6.3    6.8   -1.7
H    -4.8    2.3   -7.8
H    -8.4    1.8   -3.8
I     0.7    9.4    0.2
H    -3.9   -8.6   -0.9
H    -4.2    2.2    8.2
I     0.6   -3.2   -8.9
H    -8.7   -2.3   -3.0
I    -0.5   -9.5    0.4
I     6.9   -5.8    2.9
H     7.9    1.9   -4.9
H    -4.1    8.5   -0.7
H     4.2   -4.1   -7.5
H     3.1    3.1    8.5
I    -6.4   -6.8    2.3
H     1.0   -8.4   -4.4
C    -4.3   -3.2   -8.0
H     4.0    4.0   -7.8
H    -7.7    2.3    5.4
H     8.5   -2.3    3.8
H     4.2    8.5    1.6
H    -4.2   -2.3    8.4
H     4.7    2.2    8.2
N    -7.9    3.2    4.8
H     9.0   -2.3   -3.0
H     2.7   -9.3   -0.6
C     8.5   -3.2   -3.4
C     4.6   -3.2   -8.0
H    -4.7   -4.1   -7.5
H     7.7    3.1    5.1
H    -7.7   -3.2   -5.0
I     6.2   -0.5    7.5
H     4.7    8.5   -0.7
I    -7.0    0.5    6.9
H    -4.6    8.5    1.6
I    -2.6   -5.8    7.5
N    -4.4    3.1   -8.2
I     1.9   -6.8    6.9
I    -9.3    3.1    0.4
N     4.4    3.1   -8.2
H     8.2    4.0   -3.7
H     3.2   -3.2    8.8
H     4.6   -2.3    8.4
H     8.2    4.0    3.7
H    -7.8    4.1   -4.4
I    -6.9   -6.8   -2.2
C     8.4    3.1    4.2
I     0.7   -3.1    9.4
C    -0.1   -8.8   -4.6
H     3.3    9.4   -0.4
H     5.0   -8.6   -0.9
I     2.4   -6.8   -6.8
H    -4.8    4.0   -7.8
H    -3.1    9.4    1.3
C    -0.3    9.4   -3.4
H     7.5   -3.2    5.8
I     9.5   -3.2    0.2
H    -4.2    4.0    8.2
N     3.4   -9.4    0.2
H    -1.3    9.4   -3.3
H    -0.5   -8.4   -5.5
H    -8.2    2.0   -5.5
H    -8.7   -4.1   -3.0
H    -0.3    8.5   -5.3
C     4.2    3.1    8.6
I     7.0    6.8    2.9
H    -3.4   -9.6    0.5
H    -9.1   -2.3    3.8
H     8.5   -4.0    3.8
H     1.1   -8.6    5.4
H    -4.2   -4.0    8.4
I    -0.7    3.1    9.7
H     9.3    1.8   -3.8
H     4.7    4.0    8.2
H    -7.7    4.0    5.4
N    -8.7   -3.2    4.3
H     5.5    3.1   -8.1
N    -8.8    2.3   -4.7
H     5.7   -3.2   -7.9
C    -9.1   -3.2   -3.4
C    -4.6    3.1    8.6
H    -9.3    2.2    3.6
N     8.9    2.3   -4.7
H    -5.6   -8.6    0.8
H     8.5   -2.4   -5.3
H     9.0   -4.1   -3.0
H     1.6   -9.4    4.0
N     4.3   -3.2    8.9
N     4.3    9.4   -0.3
C    -4.1   -9.5   -0.4
N     0.1    9.4    4.3
C    -4.2    9.4    1.2
H     1.2    9.4    4.2
C    -0.5   -9.5    4.2
H     4.7   -4.0    8.4
N     8.9   -3.2    4.3
I    -2.5    6.8    7.5
N    -4.5    9.4   -0.3
N    -4.6   -3.2    8.9
H     0.2    8.5    6.2
H     3.2   -3.2   -9.5
N    -8.8   -3.2   -4.9
C     4.6    9.4    1.2
N     0.1    9.4   -4.9
N     0.9   -9.4    4.8
C     4.8   -9.5   -0.4
C     8.8    3.8   -4.6
N     8.9   -3.2   -4.9
C    -9.2    3.1    4.2
C    -8.8    3.8   -4.6
H    -5.7    3.1    8.5
H     1.1    9.4   -5.0
H    -9.1   -4.0    3.8
H     0.2   10.3   -3.0
H     3.1    3.1   -9.8
H     3.1  -10.3    0.7
H     8.5   -4.0   -5.3
C     8.6   -3.2    5.7
P     8.8   -6.3    0.3
N     4.2   -3.2   -9.4
P    -0.1    6.2   -8.8
P     8.8    6.3    0.3
H     8.4    4.2   -5.5
H    -1.1   -9.5    5.1
P    -8.9    6.3    0.3
H    -5.6   -3.2    8.8
H    -9.2   -2.4   -5.3
H    -9.4    4.0    3.7
P    -0.1   -6.4   -8.8
N    -5.5   -9.4    0.2
H    -8.7   -2.3    6.2
P    -8.9   -6.3    0.3
I    10.7    0.5   -2.3
H    -5.6    9.4   -0.4
H    -9.5    4.0   -3.7
I     6.9   -5.8   -6.2
H    -0.3   10.2    3.8
I    -6.4    5.8   -6.8
C     4.2    3.1   -9.7
H    -0.5  -10.4    3.6
N    -4.6   -3.2   -9.4
I     3.7    9.4   -4.3
H     5.4   -9.6    0.5
C    -0.2    9.4    5.7
H    -4.2   -2.4   -9.9
H    -4.1   10.2   -0.7
H    -9.7    1.9   -4.9
I    -3.8   -9.5   -4.2
H     5.7    9.4    1.3
I   -10.7   -0.5    2.9
I    -2.7   -0.6  -10.8
H     9.5    2.0   -5.5
H    -1.3    9.4    5.8
H    -4.0  -10.4   -1.0
H     9.0   -2.3    6.2
H    -4.2    2.2  -10.1
H     4.6   -2.4   -9.9
C    -4.7    3.1   -9.7
H    -3.3    3.2   10.2
H   -10.2   -3.2   -3.3
H    -6.1   -9.3   -0.6
C    -9.1   -3.2    5.7
I     3.7    9.4    4.8
H     4.2   10.3    1.6
H    -3.1   -3.2   10.4
H     4.7   10.2   -0.7
H    10.0   -3.2    4.2
H     4.6    2.2  -10.1
N    -0.0  -10.3   -4.7
P    -0.0    6.3    9.4
I     6.3   -5.8    7.5
N     9.8    3.2    4.8
P    -0.0   -6.3    9.4
H    -9.2   -4.0   -5.3
I    -6.9    5.8    6.9
I    -4.0   -9.5    4.9
H    -4.6   10.3    1.6
N    -4.3    3.2   10.1
H    -8.7   -4.1    6.2
H     0.4  -10.7   -3.8
N     4.5    3.2   10.1
H     4.8  -10.4   -1.0
I     6.9    6.8   -6.2
H    -4.2   -4.1   -9.9
H     4.1    2.3   10.5
H    -0.3   10.2   -5.3
H    -5.7   -3.2   -9.5
I     5.0   -9.5   -4.2
I   -11.4   -0.5   -1.6
C    -4.2   -3.2   10.3
H     9.8    4.1   -4.4
H     9.9   -3.2   -5.0
I    -6.4   -6.8   -6.8
H    -9.3    4.2   -5.5
I    11.3    0.4    2.3
I     1.8    0.4  -11.4
H    -9.9    3.1    5.1
I    -5.2    9.4   -4.3
H    10.0    2.3    5.4
H     1.1  -10.3    5.4
H     4.6   -4.1   -9.9
H     9.0   -4.1    6.2
H    -4.2    4.0  -10.1
H    10.5    3.2    4.0
I     4.8   -9.5    4.9
C     4.6   -3.2   10.3
I    -5.1    9.4    4.8
I     2.5    0.5   11.5
H     4.2   -2.3   10.8
H    -5.7  -10.3    0.7
H    -4.7    2.3   10.5
H    -0.9  -10.7   -4.9
H    -5.8    3.1   -9.8
H     4.6    4.0  -10.1
I     6.3    6.8    7.5
I    -7.0   -6.8    6.9
H    -4.6   -2.3   10.8
H     0.6  -10.6   -5.5
H     4.1    4.0   10.5
H     9.9    4.0    5.4
H    11.5    3.2   -0.6
H     0.2   10.3    6.2
H     5.5    3.2   10.2
H     4.2    8.5   -7.5
H   -10.2   -3.2    5.8
I     8.0    3.1   -8.6
H    -4.8    4.0   10.5
H    -4.6    8.5   -7.5
H    12.0    2.3    0.7
I    -1.9   -0.5   12.1
H     5.7   -3.2   10.4
H     4.2   -4.1   10.8
H     4.0   -8.6   -7.8
H     0.1   -2.3  -12.1
H    -7.9   -8.4   -4.4
H    -4.6   -4.1   10.8
H     8.2   -8.6   -3.7
H     8.2   -8.6    3.7
I   -10.8   -0.5   -6.2
I    -2.6   12.1   -1.6
I     6.2   -0.6  -10.8
H   -12.0   -3.2    1.3
I    10.8    5.8   -2.2
I    -8.1    9.4    0.2
H     7.5    9.4   -3.3
P     8.7   -0.0   -8.9
I     1.8  -12.1   -2.3
H    12.0   -3.2   -0.4
H    -8.7    8.5   -3.0
H    -7.2   -9.4    4.0
I    -8.2   -3.2   -8.9
I    -1.8   12.1    2.9
H    -4.2   -8.6    8.2
I   -10.7   -5.8    2.9
P    -0.0   12.5    0.3
I    -2.6   -5.8  -10.8
H   -12.2    3.0    0.5
H    -4.9   -8.6   -7.8
I     8.3   -9.5    0.4
I     2.5  -12.2    2.3
P    -8.9   -0.0   -8.9
