         400
 sphere cut out from bulk 
I    -1.1    0.6   -1.8
I     1.3   -2.2    0.9
H    -1.1    2.7   -0.6
P     1.4   -1.5   -2.2
H     0.2    2.9    1.4
N    -1.1    3.6   -0.1
C     0.2    3.7    0.7
H     1.0    3.6   -0.0
H     3.2   -1.4    2.3
H    -1.9    3.7    0.5
I    -3.3   -2.4    0.9
H     4.0    0.7    1.4
I     4.0    0.5   -1.7
P    -3.5   -1.6   -2.2
H     3.1    1.0    3.0
P    -0.9   -3.8    2.4
H    -1.1    4.4   -0.8
I    -1.0   -3.7   -2.6
C     4.0    0.6    2.5
H     0.2    4.7    1.2
N     4.0   -0.9    2.7
I    -3.3    3.4    2.7
I     1.3   -0.7   -5.2
H     4.8   -1.4    2.2
H     4.1   -1.2    3.7
H    -5.1   -1.4    2.2
I    -1.1   -2.4    5.1
H     2.5    2.9   -4.3
I     2.4    3.8    3.6
H     4.9    1.0    2.9
H    -5.0    1.0    2.9
I     3.9   -3.6   -2.7
H    -1.8    0.5    5.7
H    -5.9    0.7    1.4
I    -5.9    0.5   -1.7
H     4.6    2.2   -3.5
H     3.2   -5.3   -0.8
H    -2.8    2.6    5.0
I    -3.4   -0.9   -5.3
C    -5.9    0.6    2.5
H     2.4   -6.0    0.5
N    -5.9   -0.9    2.7
I    -0.4    6.0   -2.7
C     3.3    2.8   -5.0
H    -5.3    2.2   -3.5
H     3.3    1.8   -5.5
H    -3.6    0.4    5.8
C    -2.7    0.9    6.2
H     4.5   -5.0    1.2
P    -1.1    0.7   -6.7
N     3.3   -6.0   -0.1
I     1.0   -6.3    2.7
N     4.6    2.9   -4.2
H    -0.9   -5.8   -3.7
N    -2.7    2.3    6.0
P     6.4   -1.6   -2.2
H    -5.8   -1.2    3.7
I     6.6   -2.4    0.9
H     4.6    3.8   -3.7
H    -1.9    2.8    6.4
H    -4.5    2.9   -4.9
H    -6.7   -1.4    2.3
N    -5.3    2.9   -4.2
H    -5.4   -5.0    1.2
H     3.0   -1.8   -6.6
H    -6.8    1.0    3.0
C     4.5   -5.9    0.7
H    -5.2    3.8   -3.7
I    -6.0   -3.6   -2.7
H    -4.5   -6.0   -0.0
H     3.3    3.6   -5.7
I    -3.2   -5.8    3.6
H     1.1   -1.5    7.3
I     2.2    7.2    0.9
H     3.2   -7.0   -0.6
H    -2.7    0.7    7.3
P     4.6    5.8    2.4
H     5.4    2.9   -4.9
I     4.6   -2.0    6.1
I     6.6    3.4    2.7
H    -3.5    2.8    6.5
I     4.6    6.0   -2.6
H     3.9   -3.9   -5.8
N    -1.0   -6.7   -4.2
C    -5.4   -5.9    0.7
I    -3.0    7.4    0.9
H     5.4   -6.0   -0.0
H    -0.4    5.8   -5.8
P    -5.2    5.8    2.4
H     4.5   -6.8    1.4
I    -3.1    3.1   -7.0
I    -5.3   -2.0    6.1
H     1.1   -3.2    7.5
H    -0.9   -7.5   -3.5
H     4.7   -1.8   -6.7
N     3.8   -2.2   -7.1
H    -0.2   -6.8   -4.9
I    -5.3    6.0   -2.6
I     6.5   -0.9   -5.3
P    -3.3   -4.4    6.4
C     1.1   -2.3    8.1
I     1.1    2.7   -8.0
P     2.2    5.2    6.4
H     6.3    0.4    5.8
H    -6.7   -5.3   -0.8
H    -3.1   -6.7   -4.3
P     2.1    8.0   -2.2
H     0.5    8.3    2.2
H    -2.3   -6.0   -5.7
I    -0.0    3.7    7.8
H    -5.2   -1.8   -6.7
H    -1.2    8.3    2.3
C     3.9   -3.7   -6.9
H    -5.3   -6.8    1.4
C    -6.6    2.8   -5.0
H     1.6   -7.0    5.0
C    -2.2   -6.8   -5.0
H    -6.6    1.8   -5.5
H     8.0    3.7    0.5
H     2.9   -4.1   -7.3
I    -8.5   -2.2    0.9
P    -8.5   -1.5   -2.2
P    -2.9    8.1   -2.2
N    -6.6   -6.0   -0.1
I     8.8    0.6   -1.8
H    -7.4    2.9   -4.3
H     0.3   -2.2    8.8
H     3.2   -2.2    8.2
H     7.1    2.6    5.0
C    -0.5    6.0   -6.9
N    -0.3    8.7    2.7
H     3.8   -1.9   -8.1
H    -1.6   -8.9    1.4
I    -7.5    3.8    3.6
H    -0.7   -8.7    2.9
H     8.8    2.7   -0.6
H    -6.0   -3.9   -5.8
H     0.4    5.6   -7.3
H    -0.3    8.5    3.7
H    -1.4    5.5   -7.3
N     2.4   -2.2    8.8
I    -1.6   -9.1   -1.7
H    -6.6    3.6   -5.7
H     0.8   -6.9    6.5
H    -2.5   -8.7    3.0
H     6.4    2.8    6.5
N     8.8    3.6   -0.1
I    -1.0   -0.7   -9.5
C     7.2    0.9    6.2
C    -1.6   -9.1    2.5
H    -7.4   -6.0    0.5
N     1.6   -7.3    6.0
H    -8.9    3.6   -0.0
N    -6.1   -2.2   -7.1
I     6.7   -5.8    3.6
N     7.2    2.3    6.0
I     1.3   -6.5   -7.0
H     4.7   -4.1   -7.3
H    -6.7   -7.0   -0.6
H    -6.9   -1.8   -6.6
H     2.5   -6.9    6.4
H     2.4   -1.3    9.3
I    -0.9   -5.8    7.8
I     0.3    7.7    6.1
H    -2.2   -7.8   -5.5
I     3.3   -9.1   -1.8
H     8.8    4.4   -0.8
C    -6.0   -3.7   -6.9
H    -5.1   -4.1   -7.3
I     4.6    3.9    7.8
H     8.1    0.5    5.7
I     4.5    7.3    5.1
I     8.9   -3.7   -2.6
P     9.0   -3.8    2.4
I    -8.6   -0.7   -5.2
P     6.5   -4.4    6.4
I     6.9    7.4    0.9
H    -9.7    2.9    1.4
I    -5.3    3.9    7.8
I     6.8    3.1   -7.0
I    -0.4   10.1   -1.7
H     2.4   -2.9    9.6
H     7.2    0.7    7.3
N    -0.5    7.4   -7.1
H     0.4    7.9   -6.7
H    -6.1   -1.9   -8.1
H    -1.3    7.9   -6.6
I    -5.4    7.3    5.1
C    -9.7    3.7    0.7
H    -3.2    6.4    7.5
I     2.2    8.7   -5.3
I     8.8   -2.4    5.1
H    -0.4   10.4    1.4
C    -0.3   10.2    2.5
H     6.8   -6.7   -4.3
I    -7.7    7.2    0.9
H    10.1    2.9    1.4
H     8.0    2.8    6.4
H    -0.2   -3.6  -10.1
I     4.3   -6.0    7.8
H    -3.6    3.9   -9.3
C    10.1    3.7    0.7
I     2.4    0.9   10.5
I    -2.7    0.9   10.4
H    -6.7   -2.2    8.2
H    -9.7    4.7    1.2
I    -3.0    9.0   -5.2
H     1.6   -3.6  -10.1
C     1.6   -8.8    6.2
P     1.3    1.3  -10.7
H    -6.9   -4.1   -7.3
H     0.7   -9.2    5.8
P     7.0    8.1   -2.2
H     0.7   -5.7   -9.3
I     3.3   -1.2  -10.4
N    -1.5  -10.6    2.7
H     0.6   10.6    2.9
P     8.8    0.7   -6.7
H    -1.2   10.6    3.0
H    -1.1    7.4    8.2
I   -10.9    0.6   -1.8
H     2.5   -9.2    5.7
I    -8.9   -6.3    2.7
H    10.1    4.7    1.2
H    -0.5    7.7   -8.1
H    -0.7  -11.0    2.2
P    -7.7    5.2    6.4
H     7.6   -6.0   -5.7
I     4.5   10.2   -1.8
P    -0.1    2.9   10.9
I    -5.6   -6.0    7.8
C     0.7   -4.0  -10.6
H     9.0   -5.8   -3.7
H   -11.0    2.7   -0.6
I    -6.6   -9.1   -1.8
C    -3.2    7.4    8.1
P    -7.8    8.0   -2.2
C     7.7   -6.8   -5.0
I    -4.4   -6.9   -8.0
H    -3.2    8.2    7.3
H    -2.4  -11.0    2.3
P     0.9  -11.2   -2.2
I    11.2   -2.2    0.9
H    10.9    3.6   -0.0
I     9.4    6.0   -2.7
N   -11.0    3.6   -0.1
H    -1.5  -10.8    3.7
H    -8.8   -1.5    7.3
P    11.3   -1.5   -2.2
P     3.2   -9.0   -6.7
I    -5.4   10.2   -1.8
H     1.7   -9.0    7.3
P   -10.8   -3.8    2.4
N     0.7   -5.5  -10.3
N    -2.0    7.5    8.8
N    -3.7    4.2  -10.3
I   -10.9   -3.7   -2.6
H     2.0   10.1    5.8
N    -7.5   -2.2    8.8
H     7.4   -8.7    3.0
H    -2.8    3.7  -10.8
I     0.9  -10.5   -5.3
H    -1.9    6.7    9.6
H   -11.0    4.4   -0.8
I     5.5   -6.9   -8.0
H     6.3    3.9   -9.3
H     6.7    6.4    7.5
N     8.9   -6.7   -4.2
H    -7.4   -6.9    6.4
H    -8.3   -7.0    5.0
H    -7.5   -1.3    9.3
H    -8.8   -3.2    7.5
P    -4.2  -11.2   -2.2
H    -2.8    6.1  -10.1
C    -8.8   -2.3    8.1
I    -8.7    2.7   -8.0
I     1.0  -12.1    0.9
H    -4.1    7.4    8.8
H     9.0   -7.5   -3.5
H     3.8   10.1    5.7
H    -3.1   -1.7  -11.7
H     7.6   -7.8   -5.5
H     8.7    8.3    2.3
I   -10.3    6.0   -2.7
H     8.3   -8.9    1.4
H    -4.5    3.7  -10.8
P     4.8    3.0   10.9
H     0.6   -3.8  -11.6
H    -0.2   -5.9  -10.8
H     0.3   11.8   -3.5
H    -3.1    0.1  -11.9
I   -11.0   -2.4    5.1
H   -11.8    3.7    0.5
I    -4.3  -10.3   -5.2
I    11.2   -0.7   -5.2
I     1.7   -4.6   11.4
I    -6.6   -1.2  -10.4
P    -5.1    3.0   10.9
H     1.5   -5.9  -10.8
I     6.8    9.0   -5.2
I     8.3   -9.1   -1.7
H    -7.5   -2.9    9.6
H     9.4    5.8   -5.8
H     8.5    5.5   -7.3
I    -1.1    2.6  -12.2
C    -3.7    5.6  -10.6
C     2.9   10.5    6.2
N    -8.3   -7.3    6.0
C     8.3   -9.1    2.5
H     5.4    3.7  -10.8
I     2.3    5.1   11.3
I    -3.3   -4.5   11.3
H    -4.6    6.1  -10.1
I    -4.2  -11.9    0.9
H    -1.9    8.4    9.3
I     7.2    0.9   10.4
H    -3.3   -0.7   12.2
I    -2.6    5.0   11.4
H    -9.4    8.3    2.2
P     5.7  -11.2   -2.2
P    -0.8   -6.6   10.9
N     6.2    4.2  -10.3
H    -1.0   11.5   -5.5
C     6.7    7.4    8.1
I    -7.7    8.7   -5.3
H   -10.8   -5.8   -3.7
H     9.7   -6.8   -4.9
H     6.6    8.2    7.3
C    -3.1   -0.8  -12.4
I    10.9   -6.3    2.7
I     5.6  -10.3   -5.2
H     5.8    7.4    8.8
I    -8.6   -6.5   -7.0
P   -11.0    0.7   -6.7
H     5.3    6.1  -10.1
I    -7.5    0.9   10.5
H     2.9   10.3    7.3
I     3.6    2.9  -12.1
H     9.2   -8.7    2.9
P    -6.7   -9.0   -6.7
H   -11.7    0.5    5.7
I     8.9   -0.7   -9.5
H   -10.0   -6.8   -4.9
I     9.8    3.7    7.8
C     9.4    6.0   -6.9
P     4.4   10.3   -6.7
H    -7.4   -9.2    5.7
H    -9.1   -6.9    6.5
H     4.4   12.3   -0.6
H    -3.3   -2.4   12.5
I    -1.0  -11.6    6.1
H    -6.1   10.1    5.7
I    -9.9    3.7    7.8
H    -1.2   -1.5   13.0
H   -10.3    5.8   -5.8
I     5.7  -11.9    0.9
H    -9.6   -2.2    8.8
H    -9.5    5.6   -7.3
I     9.0   -5.8    7.8
N     9.6    8.7    2.7
H    -0.9  -11.4   -6.7
N     0.3   12.5   -4.2
H    -4.1   12.5    1.4
H    11.0   -1.5    7.3
H    13.0   -1.4    2.3
I    12.3    3.8    3.6
H     9.6    8.5    3.7
H    -2.3   -0.9  -13.1
H    13.0    1.0    3.0
H    -1.8   12.5   -4.3
H     8.6    7.9   -6.6
H     4.7   -0.9  -12.5
H    -2.5  -11.4   -6.6
H    12.4    2.9   -4.3
N    -3.3   -1.5   13.0
N   -10.9   -6.7   -4.2
I     3.2  -12.0    5.1
H     7.0    3.7  -10.8
C    -1.0   12.4   -5.0
P    -5.4   10.3   -6.7
I   -13.2   -2.4    0.9
H     1.1   12.5   -4.9
P     4.2   -6.7   10.9
H    10.4    8.3    2.2
I    -1.1    8.5  -10.4
I     2.3   13.0    2.7
H    -5.5   12.3   -0.6
H     7.5  -11.0    2.3
C     6.2    5.6  -10.6
H     2.8   12.2    5.0
H    -3.7    5.8  -11.6
C    -8.3   -8.8    6.2
H    -8.3   -3.6  -10.1
H    10.2   -2.2    8.8
H    -5.2   -0.9  -12.5
P   -13.3   -1.6   -2.2
H   -10.8   -7.5   -3.5
H     6.8   -1.7  -11.7
I    -1.7  -13.3   -2.7
H    -3.3   13.3   -0.0
