         400
 sphere cut out from bulk 
H    -0.0    2.1    0.3
H    -0.6    2.0   -1.3
I     1.4    0.8    1.9
N    -0.8    2.5   -0.3
H    -1.6    2.0    0.0
I    -0.1    0.7   -3.3
H     0.2   -3.4    0.2
H    -0.6    0.5    3.4
I    -3.6    0.7    0.8
H    -0.9   -3.5   -1.3
H    -1.6   -3.5    0.4
C    -0.8   -3.8   -0.2
C    -0.8    3.9   -0.4
H     3.4    1.5   -1.7
H    -1.4   -0.8    4.0
N    -1.2    0.2    4.2
H     0.2    4.3   -0.8
H    -0.9    4.3    0.6
I     3.2   -3.3   -0.2
H     2.4    0.8   -3.8
H    -1.6    4.3   -1.0
P     3.7   -1.6    2.4
H    -2.1    0.7    4.2
H     4.2    0.0   -2.4
C     4.0    1.1   -2.5
H    -4.1    1.6   -2.6
N     3.4    1.2   -3.8
I    -2.7   -3.0    3.4
N    -0.7   -5.3   -0.2
P     3.8    2.9    2.5
H    -4.9    0.0   -2.4
H     0.4   -0.2    5.5
I     3.2    4.5   -0.2
C    -0.5    0.4    5.5
H     3.2    2.2   -4.0
I     1.8   -3.0    4.4
I     5.5    0.7    0.8
I    -2.6   -3.4   -3.7
H     0.0   -5.7   -0.8
P    -0.8   -1.6   -5.5
H    -0.6   -5.7    0.7
C    -5.1    1.1   -2.5
H    -0.3    1.4    5.6
H     5.0    1.6   -2.6
H    -1.6   -5.7   -0.6
I     1.9   -3.2   -4.8
P    -5.4   -1.6    2.4
I    -2.6    4.5    3.1
H    -5.7    1.5   -1.7
H     4.0    0.9   -4.6
H    -1.1    0.0    6.3
I    -2.9    4.3   -3.8
P    -0.9    2.9   -5.7
P    -5.3    2.9    2.5
I     4.5    0.8    4.8
I    -4.6    0.8    4.8
I     2.0    4.8    4.3
I    -5.9   -3.3   -0.2
I     1.8    4.4   -4.8
P     3.8   -4.8   -2.9
I    -3.2    0.5   -6.2
H    -5.1    0.9   -4.6
N    -5.7    1.2   -3.8
P    -0.8   -4.7    5.2
I     0.9    0.6   -7.3
I    -0.1   -6.8    2.9
I    -5.9    4.5   -0.2
I     1.5   -7.0   -2.2
H    -1.1   -6.1   -4.3
H    -6.0    2.2   -4.0
P    -5.3   -4.8   -2.9
H    -6.7    0.8   -3.8
H     7.5    2.0    0.0
P     3.8    6.1   -2.9
I     6.4   -3.0    3.4
H     4.0   -0.6    6.8
H     4.3   -6.4    1.6
I    -7.7    0.8    1.9
P    -0.8    6.1    5.0
H     2.5   -6.9    3.2
I    -3.5   -7.1   -1.3
H     0.4   -6.2   -5.2
H    -4.8   -6.4    1.6
I     6.5   -3.4   -3.7
H     7.0    0.7    4.2
H     3.0   -2.8    7.1
H     7.5   -3.5    0.4
H     3.4    7.5    1.2
C    -0.6   -6.6   -5.1
H     3.1    7.0    3.5
I     6.2    4.3   -3.8
I     6.5    4.5    3.1
H    -5.1   -0.6    6.8
H     2.8   -0.7   -8.0
I     5.9    0.5   -6.2
H    -4.1    7.3    2.0
P    -5.3    6.1   -2.9
H     3.0   -0.6    8.1
H     3.4   -7.9    1.2
H     3.6   -3.0   -7.3
H     7.5    4.3   -1.0
I    -1.3   -3.2    8.0
H     7.7   -0.8    4.0
C     4.1   -7.5    1.9
N     8.3    2.5   -0.3
N     3.9   -1.0    7.7
H    -1.5   -5.5   -6.6
N     3.4   -7.4    3.2
I     1.6    8.4   -2.2
H     8.5    2.0   -1.3
I     1.0    0.7    8.8
I    -1.5   -3.3   -8.1
H     4.5   -0.7   -7.7
N     7.9    0.2    4.2
H    -4.3   -2.9    7.3
C     3.8   -2.5    7.7
H     8.2   -3.5   -1.3
I    -0.0    8.6    2.9
H    -4.6   -0.7   -7.7
H     4.0   -7.1    4.0
I    -1.4    4.5    7.7
H     3.6    4.7    6.8
H     5.0    7.3    2.0
I    -7.4   -3.0    4.4
I    -3.5    8.3   -1.3
H    -0.6   -7.7   -4.8
H    -0.6    7.7   -4.8
I     5.6   -7.1   -1.3
C     4.1    7.9    1.9
C     8.3   -3.8   -0.2
N    -1.4   -6.5   -6.4
H     4.8   -2.9    7.3
C    -5.0   -7.5    1.9
H     8.5    0.5    3.4
N     3.7   -1.1   -8.3
C     8.3    3.9   -0.4
N     3.4    7.9    3.2
I    -7.2   -3.2   -4.8
H    -4.1   -8.1    2.0
H     8.2    4.3    0.6
H     2.8    4.6   -7.6
H     9.1    2.1    0.3
H    -9.1    2.1    0.3
N    -5.2   -1.0    7.7
H     2.5    8.5    3.2
H     7.5   -5.7   -0.6
H    -5.7    7.5    1.2
C     3.7   -2.6   -8.3
H    -4.5   -0.6    8.4
H    -2.4   -6.8   -6.2
C    -5.0    7.9    1.9
H    -8.9   -3.4    0.2
H    -5.1   -7.1    4.0
H     4.6   -0.6    8.4
I    -7.1    4.8    4.3
I     9.0    0.7   -3.3
I    -1.5    4.4   -8.4
H     3.1   -8.4    3.5
I    -3.2   -7.0    5.7
H    -5.5   -3.0   -7.3
H     5.0   -8.1    2.0
C    -5.3   -2.5    7.7
H     0.1    9.7   -0.8
H    -0.5    9.7    0.7
I    -7.3    4.4   -4.8
I    -9.2    0.7   -3.3
H    -1.6    9.6   -0.6
H    -5.7   -7.9    1.2
H    -6.1   -2.8    7.1
H    -6.0    7.0    3.5
H     2.8   -2.9   -8.9
H     9.3   -3.4    0.2
H    -1.3   -0.1   -9.8
N     8.4   -5.3   -0.2
N    -5.7   -7.4    3.2
I     0.8   -7.1    6.9
H    -5.5    4.7    6.8
H     3.7   -2.9    8.8
H    -8.9    4.3   -0.8
I     4.4   -7.2   -5.4
H    -9.7    2.0   -1.3
N    -5.4   -1.1   -8.3
H    -0.9   -7.0   -7.1
H    -6.6   -6.9    3.2
H     4.1    8.3    4.0
C     3.8    5.1    7.8
H     4.4    8.9    1.6
P     8.3   -1.6   -5.5
H     3.9   -0.7   -9.3
I    -4.7   -7.2   -5.4
N    -0.7   10.1   -0.2
I     5.6    8.3   -1.3
C    -0.6    8.8   -5.1
H     3.0    4.7    8.5
H     8.0    0.0    6.3
H    -6.1   -0.6    8.1
N    -9.9    2.5   -0.3
H    -4.5    4.6   -7.9
H    -6.3   -0.7   -8.0
H     4.6    4.6   -7.9
C     8.6    0.4    5.5
H    -8.7   -0.2    5.5
H     9.3    4.3   -0.8
H    -4.7    8.9    1.6
H    -9.7    0.5    3.4
C     3.6    5.0   -8.2
C    -5.4   -2.6   -8.3
N    -5.7    7.9    3.2
H     8.5   -5.7    0.7
H    -4.5   -3.0   -8.8
H    -1.1    9.3   -4.3
H     4.6   -3.0   -8.8
P     3.8   -9.2   -2.9
I    -3.0    0.6    9.9
P     8.2    2.9   -5.7
H    -4.4    4.7    8.2
H    -5.1    8.3    4.0
I    -7.6   -7.0   -2.2
H     0.4    9.1   -5.2
H    -0.4    1.3  -10.5
H     8.8    1.4    5.6
P    -0.8   -9.3    5.0
I    -3.2    8.3    5.7
C    -9.9   -3.8   -0.2
H     4.7    4.7    8.2
C    -0.6    0.3  -10.6
H     0.3   -0.3  -10.6
C    -9.9    3.9   -0.4
H   -10.0   -3.5   -1.3
H     2.8    7.0    7.6
H    -5.2   -0.7   -9.3
H    -5.4   -2.9    8.8
H     3.8    6.9   -7.3
I    10.5    0.8    1.9
H    -9.1   -5.7   -0.8
P    -0.6   -1.5   10.6
C    -5.3    5.1    7.8
I     4.4    8.2   -5.4
P    -0.7    3.0   10.3
H     9.1   -5.7   -0.8
I     5.9   -7.0    5.7
H    -2.4    8.6   -6.2
I    -4.7    8.2   -5.4
I     0.9    8.3    6.9
H    -6.3    4.6   -7.6
H     8.0   -6.1   -4.3
H    -6.0   -8.4    3.5
N     3.8    6.6    7.9
P     8.3   -4.7    5.2
H   -10.0    4.3    0.6
H     3.5    4.6   -9.3
H    -1.3   -5.4    9.4
H   -10.8    2.0    0.0
H     4.5    7.0    7.2
H     9.6   -0.2    5.5
I    -8.2    0.6   -7.3
H    -9.4    1.4    5.6
N    -1.4    8.9   -6.4
P    -5.3   -9.2   -2.9
C    -9.6    0.4    5.5
H    -0.9    8.4   -7.1
H    -4.6    7.0    7.2
N     3.6    6.5   -8.2
C    -5.5    5.0   -8.2
H    -0.9  -11.0    0.6
N   -10.3    0.2    4.2
H     0.1  -11.1   -0.8
N    -9.8   -5.3   -0.2
H    -6.6    8.5    3.2
H    -9.7   -5.7    0.7
H     2.7    6.9   -8.5
H   -10.7   -3.5    0.4
H   -10.5   -0.8    4.0
H    -1.7  -11.1   -1.0
H    -0.8   -6.9    9.0
H    -6.3   -2.9   -8.9
H    -5.3    6.9   -7.3
I     3.2  -10.9   -0.2
H     6.7   -6.8   -6.2
P    -9.9   -1.6   -5.5
C    -0.8  -11.4   -0.4
H    -6.1    4.7    8.5
P     8.3    6.1    5.0
I    -7.5    8.4   -2.2
H     7.6   -5.5   -6.6
N    -5.4    6.6    7.9
I     2.0  -10.6    4.3
I     7.8   -3.2    8.0
I    -2.7  -10.8    3.1
H   -10.7    4.3   -1.0
C    -0.7   11.6   -0.2
I     7.6   -3.3   -8.1
I     0.7   -7.2   -9.2
I     6.1    0.6    9.9
H     2.8   -8.4    7.6
P     3.8   10.6   -2.9
I     9.0   -6.8    2.9
N    -1.3   -6.4    9.7
I     5.9    8.3    5.7
H    -5.6    4.6   -9.3
I    -9.2   -6.8    2.9
H     3.8   -8.5   -7.3
I     7.7    4.5    7.7
N    -5.5    6.5   -8.2
I     2.0   -3.1   11.3
P   -10.0    2.9   -5.7
P    -0.7   10.6    5.2
N     7.7   -6.5   -6.4
H     3.9    7.0    8.8
C     8.5   -6.6   -5.1
P    -0.9   -4.8  -10.9
H     4.4   -8.4    7.2
H    -8.7   -6.2   -5.2
H     0.2   12.0    0.2
H   -11.2    0.7    4.2
I    -8.1    0.7    8.8
N    -1.3    0.1  -11.9
H    -0.8   11.9   -1.3
H    -1.4    9.9   -6.6
H    -1.6   11.9    0.4
H    -4.7   -8.4    7.2
H   -10.2    0.0    6.3
H     4.3    6.9   -8.9
H    -6.3    7.0    7.6
I    -2.9  -11.1   -3.8
I     1.8  -11.0   -4.8
I     4.3    0.7  -11.3
I    10.9   -3.0    4.4
H    -2.2   -6.7    9.9
I     7.6    4.4   -8.4
H    -2.2    0.6  -11.9
P    -9.9   -4.7    5.2
H   -10.7   -5.7   -0.6
I     1.6   -3.1  -11.7
P    -5.3   10.6   -2.9
H    -4.8    6.9   -8.9
H    11.5    0.8   -3.8
H    -1.6   -0.9  -12.1
H     4.1    1.0   11.5
H     7.5    9.6   -0.6
I    -4.8    0.7  -11.3
I     0.7    8.2   -9.2
I     2.0    4.5   11.3
H     2.7   -8.5   -8.5
H    -5.2    7.0    8.8
N     3.7   -8.8    7.9
H    -0.8    8.5    9.0
I    10.0    0.6   -7.3
I    11.0   -3.2   -4.8
H    -5.4   -8.5   -7.3
I    -5.9  -10.9   -0.2
H     8.5   -7.7   -4.8
H     0.5   -6.1   10.8
H     8.5    7.7   -4.8
H     9.5   -6.2   -5.2
I     3.2   12.1   -0.2
H     7.8   -0.1   -9.8
H    -5.0    1.0   11.5
H     2.6    0.9   12.2
H     6.8    8.6   -6.2
P    -0.9    6.0  -11.1
N     3.6   -8.9   -8.2
I   -11.8   -3.0    3.4
H   -10.2   -6.1   -4.3
P    -9.9    6.1    5.0
H    -6.4    6.9   -8.5
I    10.9    4.4   -4.8
H     3.3    2.4   12.0
H    12.5    1.5   -1.7
H    -0.7    0.4  -12.7
I   -12.7    0.7    0.8
I    12.3   -3.3   -0.2
I   -11.7   -3.4   -3.7
H     3.9   -8.4    8.8
I     9.1    8.6    2.9
C    -0.5   -6.5   11.0
N     3.5    1.4   12.2
C    -9.7   -6.6   -5.1
I    -2.6   12.0   -3.7
I    11.1    4.8    4.3
I     0.1    0.8   12.8
I    -9.2    8.6    2.9
I     1.9    4.7  -11.8
H     8.2   -7.0   -7.1
I    -8.3   -7.1    6.9
I    10.6   -7.0   -2.2
N    -0.8  -12.9   -0.3
H    -6.3   -8.4    7.6
H     8.6    9.7    0.7
I     6.4  -10.8    3.1
N    -5.4   -8.8    7.9
I   -11.8    4.5    3.1
H     4.3   -8.5   -8.9
H     8.0    9.3   -4.3
I    -2.5   -3.3   12.4
I    -3.4   -7.2  -10.4
I    12.3    4.5   -0.2
H    12.3    2.2   -4.0
N    12.5    1.2   -3.8
I    -2.7   12.4    3.4
