         400
 sphere cut out from bulk 
I    -1.7    1.1    0.1
I     1.6   -1.5    0.2
P     0.7    0.7   -2.2
P     0.7    0.8    2.2
H    -3.2   -1.1   -0.1
I     2.3    2.7    0.2
H    -2.7   -2.0    2.1
I    -1.1   -1.3   -3.7
N    -3.7   -1.9    0.2
H     1.2   -3.7   -1.9
H    -3.3   -2.8   -0.1
I    -0.7   -1.2    4.2
H    -3.2    2.7   -1.5
C    -3.7   -1.8    1.7
H     1.3   -3.6    2.4
H     4.2   -1.8   -0.1
H    -4.1   -0.9    2.1
H    -0.4   -4.4   -1.9
H    -3.4    2.5    2.5
I    -0.0    3.4   -3.6
H    -2.3    3.6   -2.5
H    -0.3   -4.3    2.4
I     3.3    0.0   -3.8
H    -4.7   -1.8   -0.1
C     0.7   -4.5   -2.2
I    -0.1    3.1    4.2
N    -3.2    3.5   -2.2
H     1.2    5.1   -0.1
I     3.2    0.4    4.2
C     0.7   -4.5    2.7
H     4.8   -0.9    2.1
H     0.2   -3.7   -4.1
H    -4.4   -2.6    2.1
N     5.2   -1.9    0.2
H     0.2    5.1    2.0
I    -2.3   -5.2    0.2
H     4.6   -2.6    2.1
H     3.7    3.3   -2.9
H    -3.4    4.4   -1.6
C     5.2   -1.8    1.7
H     0.3   -3.6    4.6
H     5.7   -1.1   -0.1
C    -3.8    3.4    2.9
H     1.1   -5.4   -1.9
H    -3.2    4.3    2.5
N     0.6   -4.5   -3.7
H    -3.9    2.4   -3.8
H     4.1    3.5    2.6
H     1.1   -5.4    2.4
N     0.8    6.0    0.2
H    -0.2    6.1   -0.1
N     0.7   -4.5    4.2
H     5.6   -2.8   -0.1
C     0.8    6.0    1.7
C    -4.2    3.3   -3.3
H     1.6   -4.5   -4.1
H    -2.7    3.3    4.7
H     1.8    5.8    2.1
H    -4.8    3.5    2.6
H     5.7    2.7   -1.5
H     0.1    0.4   -6.6
H     5.6    2.5    2.5
P     0.8    0.8    6.5
H     1.7   -4.5    4.5
C     4.8    3.3   -3.3
N    -3.7    3.4    4.4
H     0.1   -5.4   -4.1
I    -5.6    0.0   -3.8
H    -5.2    3.3   -2.9
H     5.0    2.4   -3.8
C     5.2    3.4    2.9
I    -2.8    6.3    0.2
H     6.2   -2.0    2.1
H    -4.3    2.6    4.7
H     1.4    6.8   -0.1
P    -3.8   -1.9   -5.5
H     0.2   -5.3    4.6
N     5.7    3.5   -2.2
H    -2.6   -1.9    6.3
H     1.7    1.2   -6.8
H    -4.1    4.2   -3.9
I    -5.7    0.4    4.2
H     4.7    2.6    4.7
I    -6.7    2.7    0.2
I     4.3   -4.4   -3.7
H     5.5    4.4   -1.6
I     2.7   -6.7    0.3
H     0.4    6.9    2.0
C     0.8    1.0   -7.2
I     7.2    1.1    0.1
I    -4.7   -4.4   -3.7
I    -7.3   -1.5    0.2
H     4.8    4.2   -3.9
H     0.3    2.0   -7.3
H    -4.1   -0.9    6.3
H     5.8    4.3    2.5
H    -4.1    4.3    4.7
N     5.2    3.4    4.4
I     4.3   -4.7    4.2
P     5.2   -1.9   -5.5
C    -3.7   -1.8    6.6
I    -4.6   -4.7    4.2
H     4.8   -0.9    6.3
I    -2.9    0.6   -7.4
H     4.8    4.3    4.7
H     6.7    3.6   -2.5
H    -4.3   -2.7    6.3
P     0.8    6.0   -5.4
I     3.2    6.7   -3.5
P    -3.9   -7.0   -2.1
I     2.6   -2.5   -7.5
H     4.7   -2.7    6.3
P    -3.8   -7.1    2.3
I    -1.8    1.3    8.1
I     6.6   -5.2    0.2
H     6.2    3.3    4.7
H     0.1    5.6    6.3
I     1.7   -1.7    8.1
I    -1.9   -4.0   -7.3
P    -8.2    0.8    2.2
P    -8.2    0.7   -2.2
H     1.5    4.8    6.9
I    -1.3   -7.6   -3.7
H     1.4   -0.5   -8.5
N     0.9    0.4   -8.6
I    -1.3   -7.4    4.2
C     5.3   -1.8    6.6
I     2.7    4.1   -7.2
I     7.8   -1.3   -3.7
H    -7.7   -3.7   -1.9
I     6.1    6.3    0.2
I     3.7    6.7    4.3
H    -7.6   -3.6    2.4
I     2.7    2.8    7.9
I    -1.2    8.0   -3.7
P     5.1   -7.0   -2.1
H     1.3   -8.8   -0.1
H     0.3   -8.7    2.0
N     1.0    5.8    6.8
H     1.6    6.4    6.2
H    -0.0    0.3   -9.0
P     5.2   -7.1    2.3
H    -3.1   -0.9    8.4
N    -3.6   -1.8    8.1
H     6.3   -1.9    6.3
I    -6.2   -6.7    0.3
H    -7.7    5.1   -0.1
I    -1.8    5.4   -7.3
I    -1.3    8.2    4.2
I     8.2   -1.2    4.2
H     1.5    1.0   -9.2
I     2.8    9.0    0.3
H    -3.1   -2.6    8.5
I    -5.7    6.7   -3.5
H    -7.1    5.8    2.1
H    -7.3   -4.5   -4.1
I    -1.7   -4.9    8.0
I    -5.3    6.7    4.3
H    -0.3   -9.6   -0.1
I     6.0    0.6   -7.4
P    -3.7    8.6    2.3
H    -7.2   -4.5    4.5
P    -3.8    8.7   -2.1
N     0.7   -9.7    0.2
C    -8.3   -4.5   -2.2
H     4.3   -1.8    8.5
H    -7.8   -5.4   -1.9
C    -8.2   -4.5    2.7
I    -2.9   -9.4    0.2
H     8.6   -4.4   -1.9
H    -7.8   -5.4    2.4
H    -4.6   -1.8    8.5
C     0.7   -9.7    1.7
N     5.3   -1.8    8.1
H    -3.3   -6.3   -6.9
H     8.6   -4.3    2.4
H    -7.2    1.2   -6.8
P     9.7    0.7   -2.2
P     9.7    0.8    2.2
P     0.7   -4.6   -8.8
P    -3.6    3.3   -8.7
N    -8.1    6.0    0.2
I     3.2   -9.0   -3.5
I    -6.4   -2.5   -7.5
H     1.7   -9.8    2.1
N    -8.3   -4.5   -3.7
I     8.9    3.4   -3.6
H    -7.6    6.8   -0.1
I     1.6   -7.1   -7.2
I     8.8    3.1    4.2
N    -8.2   -4.5    4.2
I    -9.0    3.4   -3.6
C    -8.2    6.0    1.7
P    -3.6   -7.0    6.6
I    -2.8    5.9    7.9
P     5.2    8.6    2.3
H     5.8   -0.9    8.4
P     5.2    8.7   -2.1
I    -6.2    4.1   -7.2
H    -8.8   -3.7   -4.1
C     0.9    6.4    8.2
H    -8.8    5.1    2.0
H    -8.6   -3.6    4.6
I    -6.2    2.8    7.9
H     1.2   10.2   -1.9
P    -8.1    0.8    6.5
H     0.3    5.7    8.8
I    -9.1    3.1    4.2
H    -9.3   -4.4   -1.9
H    -9.3   -4.3    2.4
I     3.6   -8.9    4.3
H     1.2   10.2    2.4
H     1.1  -10.5   -0.1
I    -9.7   -1.2    4.2
H     9.1   -3.7   -4.1
H     5.8   -2.6    8.5
I     2.8   -6.2    8.2
H     9.1    5.1    2.0
H     8.8    6.1   -0.1
I    10.6   -1.5    0.2
H     0.1  -10.5    2.0
I   -10.7    1.1    0.1
I    -2.2   10.5    0.2
P     5.3    3.3   -8.7
H     4.2   -7.1   -6.9
H    -3.2    7.7   -6.9
I   -10.1   -1.3   -3.7
N    -3.8   -7.1   -7.2
C     9.6   -4.5   -2.2
I     7.0   -4.0   -7.3
P     0.8   -4.3    9.9
I    -6.1    9.0    0.3
I     7.1    1.3    8.1
H     0.4    7.3    8.1
H     1.9    6.5    8.6
H     5.7   -6.3   -6.9
H     9.3   -3.6    4.6
H    -9.1    6.1   -0.1
C    -8.2    1.0   -7.2
H    -4.7   -7.1   -6.9
C     9.6   -4.5    2.7
H    10.2   -3.7   -1.9
H    -8.8    0.4   -6.6
P     5.3   -7.0    6.6
H    -3.3   -8.0   -6.9
P    -3.6    3.4    9.8
I    -7.2   -1.7    8.1
H     0.2   10.3   -4.1
H    -8.8   -5.4   -4.1
P     0.7   -9.7   -5.4
H    10.3   -3.6    2.4
I     6.0   -9.4    0.2
H    -8.7   -5.3    4.6
H    -8.6    6.9    2.0
I    -5.8   -9.0   -3.5
N     9.6   -4.5   -3.7
H    -2.9   -2.0  -10.7
H    -7.4    4.8    6.9
H     9.1    0.4   -6.6
H     1.5   -9.3    6.2
I    -5.4   -8.9    4.3
H     0.3   -0.0   11.3
H     9.1   -5.4   -4.1
I     1.6    8.6   -7.2
H     0.3   10.4    4.6
H    -7.6   -0.5   -8.5
H    -0.3   11.2   -1.9
I    -0.3   -2.3  -11.1
C     0.7   11.1   -2.2
H    10.2    5.1   -0.1
N     5.2   -7.1   -7.2
H     0.3    1.7   11.3
N     9.7    6.0    0.2
H     1.8    0.8   11.3
I     7.6   -7.4    4.2
I     7.7   -7.6   -3.7
N     9.7   -4.5    4.2
P    -3.5    8.7    6.6
P    -8.2    6.0   -5.4
H    -7.3    6.4    6.2
H    -4.3   -1.0  -10.6
H     9.1   -5.3    4.6
H    -8.7    2.0   -7.3
C     0.8   11.2    2.7
C     9.7    6.0    1.7
I    11.2    2.7    0.2
H    -0.3   11.3    2.4
I    -1.4    2.9  -11.1
H     0.3   -8.3    8.1
H    10.0   -5.4   -1.9
I     7.2    5.4   -7.3
H    10.0   -5.4    2.4
H     4.7   -1.0  -10.6
I     6.2    5.9    7.9
I     3.5    1.4  -11.0
N     0.8    0.8   11.6
P     5.3    3.4    9.8
H    -7.7   -8.8   -0.1
N    -3.7    8.5   -7.2
I     7.8    8.0   -3.7
H     4.3    8.5   -6.9
N    -8.0    0.4   -8.6
N     0.7   11.1   -3.7
P     9.8    0.8    6.5
H     9.3    6.9    2.0
N    -3.9   -1.9  -11.0
H     5.8    7.7   -6.9
H    -4.3   -6.2   -9.1
H    -4.4   -2.7  -10.6
H     0.0  -10.0    6.3
I     7.2   -4.9    8.0
H     4.6   -2.7  -10.6
H    -7.4    1.0   -9.2
H    -4.6    8.5   -6.9
H     0.2    5.0  -10.8
H    -3.5  -11.3   -1.6
C    -3.8   -7.2   -8.7
N    -7.9    5.8    6.8
H     9.2    2.0   -7.3
I    -1.1   -2.3   11.7
H    -2.8   -7.3   -9.1
H     4.7   -6.2   -9.1
H     5.7   -8.0   -6.9
H     1.7   11.1   -4.1
N     0.8   11.2    4.2
I    -6.2   -6.2    8.2
H   -11.6   -2.0    2.1
I     7.7    8.2    4.2
N     1.0   -9.9    6.8
H   -11.2    3.6   -2.5
H    -3.2    9.4   -6.9
H    -3.3  -11.4    2.5
C     9.7    1.0   -7.2
H     1.8   11.1    4.5
H    10.6   -4.5   -4.1
H   -12.1   -1.1   -0.1
P     5.4    8.7    6.6
H     1.3   12.0   -1.9
H    -8.8    5.6    6.3
N     5.1   -1.9  -11.0
H     1.4   12.0    2.4
N     5.3    8.5   -7.2
H    10.3    6.8   -0.1
H    -7.2   -9.8    2.1
C     0.8   -9.3    8.2
I   -11.2   -5.2    0.2
H     1.7    5.8  -10.8
I    -5.4    1.4  -11.0
I    -1.0    4.0   11.7
C     5.1   -7.2   -8.7
H    10.8    5.8    2.1
H     9.1    5.6    6.3
H    -8.6   -8.7    2.0
H     6.1   -2.0  -10.7
H    10.7   -4.5    4.5
I     6.7   10.5    0.2
I     4.4    0.9   11.6
I     4.4   10.9    4.2
I    -7.4   -7.1   -7.2
H    -2.3  -12.0   -2.5
I    -4.5   10.9    4.2
I    -4.6    0.9   11.6
H   -12.2    2.7   -1.5
H    -4.3    7.6   -9.0
I     4.3   11.2   -3.7
H   -12.3   -2.8   -0.1
N     0.7    5.9  -11.1
I     3.1   -4.9  -11.2
H     5.4  -11.3   -1.6
P     9.7    6.0   -5.4
H    -2.7    8.4   -9.1
I    -4.6   11.2   -3.7
H     0.2   12.0   -4.1
H     4.6    7.6   -9.0
H     1.8   -9.1    8.6
H     8.9    0.3   -9.0
N    -8.2   -9.7    0.2
H    10.7    1.2   -6.8
H    -9.0    0.3   -9.0
C    -3.7    8.5   -8.7
H     0.3    6.7  -10.8
N    -3.3  -12.1   -2.2
I    -1.8  -10.2   -7.3
H    -4.2  -11.4   -3.9
H   -12.3    2.5    2.5
I     2.9    9.4    8.2
I    -0.1  -12.3   -3.6
C    -8.2   -9.7    1.7
I    12.3    0.0   -3.8
N   -12.7   -1.9    0.2
I    12.1    0.4    4.2
N   -12.2    3.5   -2.2
I     3.3   -3.6   11.9
H    -4.4   -8.0   -9.0
I    -2.9   -9.7    7.9
H     9.2   -8.7    2.0
H    -7.1    6.5    8.6
H     1.4  -10.8    6.9
H     4.5   -8.0   -9.0
I    -0.8   -6.5  -11.1
