         400
 sphere cut out from bulk 
I    -1.3    0.1    1.4
I     1.2   -0.2   -2.0
P     1.2    2.1    0.3
P    -1.3   -2.1   -1.0
I     1.2   -3.7    0.3
I     3.7    0.2    1.4
I    -1.3    3.6   -1.1
H    -1.3    0.1    3.9
I    -3.7   -0.1   -2.1
P    -3.7    2.1    0.4
P     3.7   -2.1   -1.0
H     1.1   -0.1   -4.5
I     1.2    3.7    2.9
N    -1.3    0.1    4.9
H    -0.4   -0.5    5.2
H    -1.3   -4.6    2.1
I    -3.8   -3.7    0.4
I    -1.3   -3.4   -3.8
I     3.7    3.6   -1.1
H     2.8    0.9    4.4
H    -0.4   -4.0    3.5
H    -0.3    1.9    5.2
H    -2.1   -0.5    5.2
N     1.1    0.0   -5.5
H    -2.8    3.8   -3.1
C    -1.3   -4.5    3.2
H    -2.2   -4.0    3.5
H     0.3    4.6   -3.6
H     0.3    0.6   -5.8
C    -1.2    1.4    5.5
H     3.3   -3.5    3.4
H     1.6    5.1   -2.5
H    -2.1    2.0    5.2
I    -3.8    3.7    3.0
H     1.9    0.6   -5.8
H    -2.6   -1.8   -5.2
H     0.2   -1.9   -5.9
I     1.2   -2.2    5.7
I     3.6   -3.6   -3.8
C     3.6    1.4    5.0
I    -6.2    0.2    1.4
C     1.0    5.3   -3.4
H     2.9   -5.4    1.9
H     0.5   -5.5   -3.2
C     1.1   -1.3   -6.2
H    -0.4    5.4    3.5
H    -2.6   -0.2   -5.9
I     6.1   -0.1   -2.1
P     6.1    2.1    0.4
H     2.0   -1.8   -5.9
H     4.6    1.4    4.5
N    -3.5    4.0   -3.8
P    -6.2   -2.1   -1.0
H    -3.2    3.4   -4.7
H    -4.4    3.6   -3.5
H     3.3    2.4    5.3
H    -2.1    5.4    3.5
N    -3.0   -1.1   -6.0
I    -1.6    2.1   -6.3
H    -1.2    1.3    6.6
C     3.6   -4.5    3.7
H     4.5   -5.0    1.8
N     3.8   -5.4    2.5
H     2.4    4.5   -4.7
H    -4.8   -0.7   -5.0
H    -5.3    1.4    4.5
N    -1.3   -5.9    3.8
H     0.5    6.3   -3.2
I     6.1   -3.7    0.4
H     2.8   -5.0    4.3
H     5.1   -0.7   -5.0
N    -1.2    6.0    3.8
I    -3.8   -2.2    5.7
I    -6.1    3.6   -1.1
H     4.1   -0.4    6.0
H     3.0    6.4    1.9
N     1.9    5.4   -4.6
H     1.6   -6.7   -2.5
N     3.8    0.5    6.3
H    -0.5   -6.4    3.5
C     0.9   -6.5   -3.4
H     4.1    5.5    2.7
H     5.5    3.6   -3.5
H     1.1   -1.2   -7.3
H     2.9    0.5    6.8
I     3.5    2.5   -6.1
H    -5.4   -5.0    1.8
H    -2.6   -1.5   -6.9
C    -4.5   -1.1   -6.0
H     2.5   -5.6   -4.4
H    -1.2    7.2    2.1
H    -2.1   -6.4    3.5
H     4.5   -4.5    4.2
H    -1.3   -5.8    4.8
H    -3.9   -5.8   -3.2
I     6.1    3.7    3.0
C    -3.6    5.5   -4.2
H    -2.6    5.8   -4.5
H    -1.2    6.0    4.8
H    -3.8    6.0   -3.2
N     3.8    6.5    2.5
H     1.4    5.6   -5.4
H     4.0   -6.3    2.7
H    -2.7   -6.1   -4.5
H     2.6    6.2   -4.4
N     1.8   -6.4   -4.6
C    -1.2    7.3    3.2
H     0.2   -7.3   -3.6
I    -6.2   -3.6   -3.8
H    -4.8   -2.1   -6.1
C     5.4   -1.1   -6.0
C    -6.3    1.4    5.0
H    -6.5   -3.5    3.4
H    -5.3   -4.5    4.2
I     1.3    8.1    0.3
H     5.0   -2.1   -6.1
H     4.6    0.9    6.9
H     1.3   -6.2   -5.4
H    -5.8   -0.4    6.0
H    -4.8   -0.5   -6.8
H    -7.1    0.9    4.4
H    -5.7    5.5    2.7
N     6.4    4.0   -3.8
I    -1.4   -8.3   -1.1
C    -3.7   -6.4   -4.2
H     4.6    6.9    1.8
H     5.0   -0.5   -6.8
N    -6.1   -5.4    2.5
C    -6.3   -4.5    3.7
H    -0.3    7.8    3.5
H     2.9    6.9    4.3
H     7.1    3.8   -3.1
I     6.1   -2.2    5.7
H    -4.4    5.6   -4.9
I     8.6    0.1    1.4
I     1.2   -8.1    2.9
N    -6.1    0.5    6.3
H    -5.3    0.9    6.9
H    -6.5    2.4    5.3
I     1.3    2.3    8.4
H     6.6    3.4   -4.7
H    -5.3    6.9    1.8
H    -2.1    7.9    3.5
P    -8.6    2.1    0.3
P     8.6   -2.1   -1.0
I    -8.7   -0.2   -2.0
H     6.0   -5.8   -3.2
I    -3.7    8.2    0.4
C     3.7    7.3    3.7
H     2.3   -7.3   -4.7
H    -5.8   -6.3    2.7
H    -7.0   -5.4    1.9
H    -2.9   -8.0   -3.1
I     3.7   -8.2   -1.1
H    -4.4   -6.2   -4.9
H     7.2   -1.8   -5.2
H     6.0    6.0   -3.2
N    -6.0    6.5    2.5
N     6.9   -1.1   -6.0
I    -6.4    2.5   -6.1
H     5.5    5.6   -4.9
P     1.2   -3.8    8.4
C     6.3    5.5   -4.2
H     7.2   -0.2   -5.9
I    -1.2    8.4   -3.8
I     8.6    3.6   -1.1
H     7.7   -4.0    3.5
H     7.8   -0.5    5.2
I    -1.3   -5.8    7.3
I    -1.6   -2.4   -9.0
I    -3.7    2.3    8.3
H     8.6    0.1    3.9
I    -8.7   -3.7    0.3
N    -3.6   -7.8   -3.8
I    -3.8   -8.1    3.0
H     7.8    2.0    5.2
I    -1.2    6.1    7.3
H     5.4   -6.2   -4.9
H     3.4    8.3    3.4
H    -6.9    6.4    1.9
H     4.6    7.3    4.2
H    -7.1   -5.0    4.3
H    -6.9    0.5    6.8
P     1.2   -9.7    0.3
I     1.0    5.7   -7.9
P    -1.2    9.7   -1.0
I     3.7    8.3   -3.8
C     6.2   -6.4   -4.2
P    -1.5    3.7   -9.0
I    -8.6    3.7    2.9
H    -8.0    0.6   -5.8
H    -8.8   -0.1   -4.5
I     3.4   -2.3   -9.0
N     8.6    0.1    4.9
H    -7.4    4.5   -4.7
P    -3.8   -3.8    8.4
H    -5.3    7.3    4.2
H    -7.8   -1.8   -5.9
H    -4.5   -8.2   -3.5
I     8.6   -3.4   -3.8
H     8.6   -4.6    2.1
I     3.6   -5.7    7.3
H    -8.2    5.1   -2.5
I     0.9   -6.1   -7.9
I    -1.3   -2.3    9.7
H     7.2   -1.5   -6.9
H     7.8    5.4    3.5
H    -3.3   -8.4   -4.7
C     8.6   -4.5    3.2
I     3.7    6.1    7.3
I     6.2    8.2    0.4
H    -7.4   -5.6   -4.4
C    -6.2    7.3    3.7
H     7.3    5.8   -4.5
P     3.5    3.8   -9.0
C     8.7    1.4    5.5
N    -8.8    0.0   -5.5
I    -6.2   -8.2   -1.1
H     5.4   -8.2   -3.5
H     7.2   -6.1   -4.5
P    -1.2    3.8    9.7
P     3.8    9.7   -1.0
P    -3.8   -9.8    0.4
I    -3.9    5.7   -7.9
I     1.0    2.2  -10.3
I     6.0   -8.1    3.0
H    -7.3    6.2   -4.4
I     3.7   -2.2    9.7
I     6.2    2.3    8.3
I    -8.7   -2.2    5.7
I     8.3    2.1   -6.3
H     7.7   -6.4    3.5
N    -8.0    5.4   -4.6
H    -7.0    6.9    4.3
N     6.3   -7.8   -3.8
H     9.4   -0.5    5.2
C    -8.7   -1.3   -6.2
I    -4.0   -6.2   -7.9
C    -8.8    5.3   -3.4
H     9.5   -4.0    3.5
I    -6.1    8.3   -3.8
H     8.7    1.3    6.6
H    -8.3   -6.7   -2.5
H     9.6    1.9    5.2
P     0.9   -3.9  -10.3
P     6.1   -3.8    8.4
N     8.6   -5.9    3.8
H     7.0   -8.0   -3.1
H    -6.5    8.3    3.4
P     3.7    3.9    9.7
N     8.6    6.0    3.8
H    -0.4   -9.9    5.2
H    -9.6    4.6   -3.6
I    -6.2   -5.7    7.3
H    -9.6    0.6   -5.8
I     1.3    9.6    5.7
I   -11.2    0.1    1.4
N    -8.0   -6.4   -4.6
I    11.1   -0.2   -2.0
I    -4.0    2.2  -10.3
P    11.1    2.1    0.3
I    -6.5   -2.3   -9.0
H     3.3   -9.5    5.3
I    -6.2    6.1    7.3
H    -2.2   -9.9    5.2
H    -9.4   -5.5   -3.2
P   -11.2   -2.1   -1.0
H    -8.8   -1.2   -7.3
H    -9.6   -1.9   -5.9
I     6.0    5.7   -7.9
H     8.6   -5.8    4.8
H     9.5    5.4    3.5
H     8.7    7.2    2.1
P     6.1   -9.8    0.4
H    -7.5   -7.3   -4.7
C    -8.9   -6.5   -3.4
H     1.4   -1.1   11.4
H   -10.3   -0.5    5.2
P    -6.1    9.7   -1.0
H     0.3    9.9   -5.9
H    -8.5    5.6   -5.4
H   -10.3   -4.0    3.5
H     8.6    6.0    4.8
H   -10.2    1.9    5.2
H     7.8    7.9    3.5
H     6.6   -8.4   -4.7
H    -2.6   10.1   -5.2
I     5.9   -6.2   -7.9
P    -6.4    3.8   -9.0
I    -1.7   -9.7   -6.3
I     3.4   -9.4   -6.1
P     1.3    8.0    8.4
H    10.1    0.6   -5.8
H    10.2    4.6   -3.6
I    11.1   -3.7    0.3
P    -4.0   -3.9  -10.3
H    -9.3    6.3   -3.2
I    -6.2   -2.2    9.7
I   -11.2    3.6   -1.1
H     2.1   10.0   -5.9
I    -3.7    9.6    5.7
H   -11.1    0.1    3.9
C     8.7    7.3    3.2
I    -8.6    8.1    0.3
H    10.1   -1.9   -5.9
H    11.0   -0.1   -4.5
I    -1.4  -11.7    1.4
C    -1.3  -10.4    5.5
H    -8.6   -6.2   -5.4
I     8.5   -8.3   -1.1
I     1.3   11.7   -2.0
H     9.4   -6.4    3.5
I    11.1    3.7    2.9
H    -2.4   -1.4   11.8
I     5.9    2.2  -10.3
H     2.7  -10.9    4.4
I    -1.2   12.0    1.4
P    -6.1    3.9    9.7
H   -10.3    5.4    3.5
C     3.5  -10.5    5.0
H     2.7    0.4  -11.9
H    10.3   -5.5   -3.2
N   -11.1    0.1    4.9
P    -3.7    8.0    8.4
H     4.5  -10.4    4.5
I     1.1  -12.0   -2.0
P    -1.6   -8.1   -9.0
H    -1.5    1.2  -12.1
I    -8.6    2.3    8.4
C     1.2   10.5   -6.2
H   -11.2   -4.6    2.1
I    -8.7   -8.1    2.9
I     1.2    5.8   10.8
I     3.6  -11.7    1.4
N    11.0    0.0   -5.5
I   -11.2   -3.4   -3.8
I     1.1   -6.0   10.8
I    -3.7   11.7   -2.1
H    -1.4  -11.7    3.9
H    -4.8    9.7   -6.1
H    -0.4   11.3    5.2
C   -11.2   -4.5    3.2
I     8.3   -2.4   -9.0
P     5.8   -3.9  -10.3
C   -11.1    1.4    5.5
H    -1.3  -10.5    6.6
P     3.4   -8.1   -9.0
H     5.1    9.7   -6.1
H    -5.4  -10.4    4.5
H    -1.2   11.9    3.9
H     4.3    0.8  -11.8
C    10.9    5.3   -3.4
H    10.4    6.3   -3.2
H    -9.7   -7.3   -3.6
N    -2.9   10.7   -6.0
H    -2.0   11.3    5.2
H     1.2   11.7   -4.5
C     1.4   -1.2   12.5
I     8.6    8.4   -3.8
I     3.7   12.0    1.4
H     0.2  -11.3   -5.8
I     8.6   -5.8    7.3
P    -8.7   -3.8    8.4
P    -1.3   -8.0    9.7
I    11.1   -2.2    5.7
I    -1.3    2.2   12.4
H    -2.6   10.3   -6.9
C    11.0   -1.3   -6.2
H   -10.4   -6.4    3.5
H    -6.6   -9.5    5.3
I    -3.7    5.8   10.7
H    -4.6   -0.4   11.9
I    -3.8  -12.0   -2.1
H     1.8  -11.2   -5.8
I     6.2    9.6    5.7
H     1.0  -11.9   -4.5
I     1.2   -9.6    8.4
N    -1.3  -11.8    4.9
P     8.4    3.7   -9.0
H    11.5    5.1   -2.5
I     8.7    6.1    7.3
H     9.6    7.8    3.5
I    -3.7   -6.1   10.7
N    -1.2   11.9    4.9
I    -1.6   -5.9  -11.4
I    -6.5   -9.4   -6.1
H    10.1   -7.3   -3.6
N     3.6    0.4  -12.4
H     0.5   -1.8   12.8
H     0.5    0.7   12.9
I    -1.5    6.0  -11.4
H     1.2   10.7   -7.3
H   -11.1    1.3    6.6
N    -2.7   -1.0   12.7
H     5.3   -0.4   11.9
H    -2.4   -0.1   12.8
P     8.7    9.7   -1.0
P     1.0    7.9  -10.3
C    -4.4   10.7   -6.0
H   -12.0   -0.5    5.2
