         400
 sphere cut out from bulk 
H    -0.6   -0.4   -1.7
N    -0.6    0.2   -2.3
H    -0.9    1.2   -2.0
I     0.3   -2.5   -0.4
H     0.4    0.3   -2.6
I     1.4    0.2    2.7
I    -2.8    0.6    1.3
P    -1.2   -2.0    2.3
P     3.1   -1.0    0.3
I     3.0    0.5   -2.5
C    -1.3   -0.3   -3.7
H     0.5    3.5    2.2
H    -2.3   -0.4   -3.5
H    -0.9   -1.3   -4.0
H    -1.2    3.1    2.8
H    -0.8    4.1    1.2
I    -0.9    3.8   -2.0
C    -0.5    3.9    2.2
H    -1.2    0.4   -4.3
H     2.5    4.3   -0.7
I    -3.7   -3.6    0.9
H     3.7    3.0   -2.3
H     4.1    3.4   -0.0
P    -5.4   -1.0    0.3
H    -4.4    3.4   -0.0
H    -1.1   -5.5   -0.5
C     3.6    4.3   -0.7
H    -3.5    3.9   -2.2
H     3.0    0.9    4.8
I     5.7    0.6    1.3
N    -0.5    5.1    3.0
N     4.0    3.9   -2.1
I    -2.4   -1.6    5.4
I     4.9   -3.6    0.9
I    -0.5   -5.0    3.5
I    -5.6    0.5   -2.5
H    -4.8    3.0   -2.3
N    -4.5    3.9   -2.1
H    -0.1    5.0    3.9
H     0.1    5.9    2.5
H     2.0   -5.3    3.1
H     3.6    4.6   -2.8
H    -1.5    5.5    3.1
H     3.5   -4.9    2.5
C    -4.9    4.3   -0.7
I    -2.8   -4.4   -4.1
H     4.0    5.3   -0.5
I     1.4   -3.4   -5.6
C    -1.5   -6.5   -0.7
H     3.5   -0.0   -5.7
H    -4.1    0.2    5.3
N     3.5    0.9    5.7
H     2.4   -0.6    6.3
H     5.0    3.9   -2.2
H     4.4    0.2    5.3
H     2.1    0.7   -6.6
P    -0.4    4.9   -5.0
H    -1.5   -6.2   -2.8
H    -2.6   -6.5   -0.7
H    -4.5    5.3   -0.5
N     2.9   -5.7    3.0
H     6.2   -0.4   -3.5
H     1.8    1.1    6.8
H    -0.0   -6.9   -2.2
N    -1.1   -6.9   -2.1
C     2.6    0.4    6.8
C     2.9   -0.0   -6.7
H     2.6   -6.7    1.2
H    -4.9    4.6   -2.8
H     3.9    1.8    5.9
H    -5.5    0.9    4.8
I    -3.1    3.1   -5.9
I     1.1    4.2    6.0
I     1.4    7.2    0.9
H    -6.0    4.3   -0.7
H    -5.0   -4.9    2.5
H    -1.0   -7.4   -0.0
N    -5.0    0.9    5.7
I    -7.1    0.2    2.7
H    -5.0   -0.0   -5.7
H    -4.6    1.8    5.9
H     2.7   -1.0   -7.1
I     2.5   -7.0   -2.0
H     3.4   -5.8    3.9
I    -3.9    5.8    3.5
C     2.9   -6.9    2.2
P     7.3   -2.0    2.3
H     7.6    1.2   -2.0
I     2.3    6.4   -4.1
H     7.9   -0.4   -1.7
P    -1.5   -4.5    6.6
C     7.2   -0.3   -3.7
I     4.6    5.8    3.5
N     7.9    0.2   -2.3
I     5.7   -4.4   -4.1
H    -1.4   -7.8   -2.3
I     6.1   -1.6    5.4
P     3.0   -5.9   -5.0
H     3.2    0.4    7.7
H     7.3    3.1    2.8
I     1.4    3.7   -7.5
I     1.1   -3.0    7.9
H     7.3    0.4   -4.3
N    -5.6   -5.7    3.0
H     2.3   -7.7    2.8
H    -8.1    0.3   -2.6
P    -1.2   -5.0   -6.9
I    -8.2   -2.5   -0.4
I    -2.1   -2.0   -8.1
I     5.4    3.1   -5.9
H     3.9   -7.3    2.2
N     3.8    0.4   -7.8
C    -5.6   -0.0   -6.7
H     7.6   -1.3   -4.0
H    -5.1   -5.8    3.9
I     7.6    3.8   -2.0
H     4.2    1.4   -7.5
H    -4.3    1.4   -7.5
H     7.7    4.1    1.2
H     5.9   -6.5   -0.7
H    -6.1   -0.6    6.3
I    -3.1    8.3   -0.4
H    -4.6   -7.3    2.2
H    -3.8   -0.2   -8.1
C    -5.9    0.4    6.8
H    -8.0    3.5    2.2
H    -6.5   -5.3    3.1
I    -3.4    3.6    7.5
H    -5.9   -6.7    1.2
N    -4.7    0.4   -7.8
C    -5.6   -6.9    2.2
C     8.0    3.9    2.2
I     8.8   -2.5   -0.4
H     7.4   -5.5   -0.5
H    -6.4    0.7   -6.6
H    -5.8   -1.0   -7.1
H    -1.5    0.8    9.1
H    -9.1   -0.4   -1.7
H     3.3    0.5   -8.7
H     8.9    0.3   -2.6
H    -5.3    0.4    7.7
H     4.7   -0.2   -8.1
N    -9.1    0.2   -2.3
I    -6.0   -7.0   -2.0
H     7.0    5.5    3.1
P    -5.5   -5.9   -5.0
I    -2.1    7.4   -5.6
H    -1.2   -0.9    9.5
C     7.0   -6.5   -0.7
H    -6.7    1.1    6.8
I     0.4   -7.7   -5.9
I    -7.1   -3.4   -5.6
H    -9.4    1.2   -2.0
I    -4.0   -6.6    6.0
P     3.6    6.3    6.6
H     7.0   -6.2   -2.8
I     5.1    3.6    7.5
P     3.9    5.8   -6.9
P    -0.3    9.8    0.3
I    -6.2    6.4   -4.1
C    -1.6    0.1    9.7
I     5.4    8.3   -0.4
H     9.0    3.5    2.2
P     3.9    8.8    2.3
N     8.0    5.1    3.0
P    -0.7    5.3    8.5
I     4.6   -6.6    6.0
C    -9.0    3.9    2.2
I     8.0   -5.0    3.5
H    -5.2    0.5   -8.7
P    -4.6    5.8   -6.9
I    -7.1    7.2    0.9
P    -9.7   -2.0    2.3
H     2.5   -9.7   -2.0
P    -4.6    8.8    2.3
H    -9.3    4.1    1.2
I     9.9    0.2    2.7
H    -9.4   -1.3   -4.0
H    -6.2   -7.7    2.8
I     0.6  -10.2    1.3
P    -4.9    6.3    6.6
H    -2.6    0.1   10.0
N     7.4   -6.9   -2.1
I    -7.4    4.2    6.0
I    -9.4    3.8   -2.0
P     2.7   -5.5    8.5
I     0.1   -7.2    7.5
C    -9.8   -0.3   -3.7
I     6.4   -2.0   -8.1
H    -9.7    3.1    2.8
H     0.2    4.6   -9.5
H     8.4    5.0    3.9
H    -8.4    5.9    2.5
I    -3.1   -4.0    9.3
H     7.6   -7.4   -0.0
P     7.0   -4.5    6.6
H    -9.7    0.4   -4.3
H    -8.6    5.0    3.9
P     8.1    4.9   -5.0
H     8.6    5.9    2.5
N    -9.0    5.1    3.0
I    -2.1  -10.3   -2.5
H    -1.1   -9.0    5.9
H     7.1   -7.8   -2.3
I    -9.0   -5.0    3.5
I     1.7   -0.3  -10.7
H     0.1    0.8   10.9
I    -3.7   -7.1   -7.5
I    -7.1    3.7   -7.5
I     2.7    9.2    5.4
H    -0.9    2.7  -10.7
H    -9.6   -5.5   -0.5
H     8.5   -6.9   -2.2
H     4.2    9.5   -4.0
H    -2.0   -9.9    4.8
H    -4.3    9.5   -4.0
H    -8.5   -6.9   -2.2
N    -0.9    0.6   11.1
P     7.3   -5.0   -6.9
I    -7.4   -3.0    7.9
N     2.8  -10.6   -2.3
H    -4.0   10.4   -1.7
I     6.4    7.4   -5.6
P    -8.9    4.9   -5.0
H     2.7   10.4   -3.5
I    -0.2   -5.4  -10.0
I     2.7    0.9   11.0
I    -2.4    7.8    7.9
I     4.8   -7.1   -7.5
H   -10.8   -0.4   -3.5
P    -0.9   -2.4  -11.1
I   -11.3    0.6    1.3
H     4.5   10.4   -1.7
H     3.9  -10.5   -2.6
N    -0.2    4.7  -10.4
I    -2.0   11.0    2.7
I     5.4   -4.0    9.3
H     2.2  -10.4   -4.3
H     7.0    0.8    9.1
H    -1.2    5.1  -10.3
N    -1.5   -9.9    5.7
H    -6.0   -9.7   -2.0
H    -1.2    1.6   11.4
H     5.9    0.1   10.0
I    -3.7  -10.7    2.7
I    -0.5   11.3   -2.5
P    -5.8   -5.5    8.5
P    11.6   -1.0    0.3
H     0.8    3.0  -11.3
H     2.8  -11.2   -1.7
I     2.3   11.4    1.3
I    11.5    0.5   -2.5
I     2.0    6.9    9.3
H     1.1  -11.2   -3.5
C    -0.2    3.5  -11.2
H    -4.7  -10.5   -2.6
H    -0.9   -0.0   11.7
C     3.8   10.5   -3.7
H    -3.0   11.1   -2.6
H   -10.0    5.5    3.1
I     9.9   -3.4   -5.6
H    11.0    4.3   -0.7
H    -0.6  -10.6    5.3
I    -3.6    5.4  -10.0
C     2.2  -11.1   -3.7
C   -10.0   -6.5   -0.7
P    -1.9  -11.8    0.3
N    -4.0   11.0   -2.3
C     6.9    0.1    9.7
H     3.7   -6.2   -9.5
N    -9.6   -6.9   -2.1
H     7.3   -0.9    9.5
H     2.3   -5.7  -10.3
I     4.8  -10.7    2.7
H    -9.5   -7.4   -0.0
H    -1.1   10.2    6.3
I     9.6    4.2    6.0
H     3.4    3.4   11.1
N     4.5   11.0   -2.3
C    -4.7   10.5   -3.7
H    -0.8   -9.4   -7.5
H   -10.0   -6.2   -2.8
I    -5.8    9.2    5.4
H    -0.8    9.8   -7.1
H    10.5   -5.3    3.1
H     3.3    5.0   10.6
H     0.1   10.8   -5.7
H    -1.8   -5.8   10.6
I   -10.9   -1.6    5.4
H     0.4    5.5  -10.9
I    -1.2    4.3   11.4
N    -5.7  -10.6   -2.3
H     1.0   11.0    5.3
I     3.0    8.8   -8.1
H    -3.3   -9.7    6.8
I     9.9    7.2    0.9
I     4.9    5.4  -10.0
I    -2.5    0.2  -12.1
H    -4.8   -6.2   -9.5
I     6.4  -10.3   -2.5
H    -1.6  -10.8   -5.7
H    -5.8   10.4   -3.5
H    10.3    1.1    6.8
H    -3.0  -10.1   -6.6
I    -5.8    0.9   11.0
H    10.6    0.7   -6.6
N     3.2   -6.1  -10.4
H    11.5    0.9    4.8
H    10.9   -0.6    6.3
H     3.8   11.2   -4.3
H    -3.8    4.4   11.2
C    -2.4  -10.4    6.8
I    -8.2   -7.7   -5.9
H    -0.4   11.7    4.8
P     7.8    5.3    8.5
H     5.5   11.1   -2.6
N     3.7    4.4   11.3
I     6.1    7.8    7.9
H    -5.1    3.4   11.1
C    -0.5   10.8   -6.7
I   -12.2   -3.6    0.9
I    -6.8   -0.3  -10.7
H    -5.7  -11.2   -1.7
I     9.6   -3.0    7.9
H    12.2    3.0   -2.3
H     6.5   -9.9    4.8
H     3.8   -5.3  -10.9
P   -10.0   -4.5    6.6
H    -0.5    3.7  -12.2
I   -11.3   -4.4   -4.1
H   -12.0    3.9   -2.2
P     8.2    9.8    0.3
H     4.2   12.0   -2.0
H    -5.2    5.0   10.6
H    -9.9   -7.8   -2.3
P    -9.7   -5.0   -6.9
H    -4.7   11.2   -4.3
H   -11.1   -6.5   -0.7
C    12.1    4.3   -0.7
H    -4.4   12.0   -2.0
C    -2.1  -10.8   -6.7
H    -6.3  -10.4   -4.3
H     4.7    4.4   11.2
H    -0.3   -6.4   11.2
I    -7.9  -10.2    1.3
I     9.9    3.7   -7.5
H     5.2   -9.7    6.8
H     2.5  -12.1   -4.0
N     0.1   11.7    5.7
N    -1.2  -10.4   -7.8
I     6.5   11.0    2.7
H    11.1   -6.7    1.2
H     7.4   -9.0    5.9
C    11.1    0.4    6.8
N    -4.8    4.4   11.3
H    -4.7   -5.3  -10.9
H    12.6    3.4   -0.0
I    -6.2   11.4    1.3
H    -1.9  -10.4    7.7
N    -1.4   -6.4   11.3
I     8.9   -7.7   -5.9
N    11.4   -5.7    3.0
C    -0.8   11.2    6.8
I    -5.5    8.8   -8.1
P     2.2  -12.8    2.3
N    -5.3   -6.1  -10.4
I    11.0   -7.0   -2.0
I    10.8    6.4   -4.1
P    -8.8    9.8    0.3
H    12.0   -4.9    2.5
I     0.0   -2.1   13.1
H    12.1    4.6   -2.8
C    11.4   -0.0   -6.7
N    12.5    3.9   -2.1
H    11.2   -1.0   -7.1
H    -2.7  -11.4    6.3
H     5.5  -10.1   -6.6
I    -6.5    6.9    9.3
H    12.0   -0.0   -5.7
H    -1.3   11.5   -6.6
C    -6.3  -11.1   -3.7
H   -12.9    3.4   -0.0
I     2.2   -6.6   11.4
H    -6.2   -5.7  -10.3
N    12.1    0.9    5.7
I   -11.6    3.1   -5.9
H     7.6    2.7  -10.7
H    -8.3    4.6   -9.5
N     7.0   -9.9    5.7
H     1.3   10.6   -8.1
I    -8.4   -7.2    7.5
H    -1.7   -7.4   11.1
I   -10.6   -2.0   -8.1
P     6.6  -11.8    0.3
I     6.0    0.2  -12.1
N     7.6    0.6   11.1
I     8.6   -7.2    7.5
H    10.8   -7.7    2.8
C    11.4   -6.9    2.2
I     1.1  -12.4    5.4
