         400
 sphere cut out from bulk 
P     0.5    1.2   -0.7
I     1.6   -0.9    1.6
I    -1.3   -0.8   -2.2
I    -1.8    1.7    1.6
H     1.2   -3.1   -0.3
H    -3.3   -0.5    1.4
H    -0.5   -3.8   -0.2
H    -0.0   -3.1   -2.4
I     3.1    0.6   -2.3
P     0.6    1.3    3.7
C     0.5   -3.9   -0.6
I     2.2    3.3    1.7
H    -3.4   -2.2    1.4
H    -3.2    2.7   -1.3
N    -3.9   -1.3    1.8
I    -0.1    3.9   -2.2
N     0.5   -3.9   -2.1
H     4.1   -1.2    1.5
H    -2.8   -1.5    3.6
H     1.5   -3.9   -2.4
H     0.2    0.8   -4.8
H     0.9   -4.9   -0.2
H    -4.8   -1.2    1.5
C    -3.8   -1.3    3.3
H    -0.0   -4.8   -2.4
C    -3.7    3.5   -1.7
I    -2.5   -4.6    1.6
H    -4.2   -0.3    3.6
H     4.0    3.8    0.0
N     5.1   -1.3    1.8
H    -3.0    4.2   -2.3
H     1.7    1.6   -5.2
C     0.7    1.5   -5.4
I    -0.8   -0.6    5.7
P    -4.0   -1.4   -4.1
H     5.7   -0.5    1.4
H    -3.5    4.7    0.0
H     0.2    2.5   -5.4
H     0.2   -3.0    5.1
H     4.4    3.2   -2.3
H     1.0    5.6    1.6
H     4.8   -0.3    3.6
H    -4.5    3.2   -2.3
H     5.5   -2.2    1.4
H    -3.4    3.0    4.1
I     4.1   -3.9   -2.3
H     4.5   -2.1    3.6
N    -4.3    4.3   -0.6
H    -4.5   -2.1    3.6
C     5.1   -1.3    3.3
H    -4.9    3.8    0.0
I    -5.8    0.6   -2.3
N     4.7    4.3   -0.6
H     5.8    2.7   -1.3
I     3.1    1.0    5.7
C     5.2    3.5   -1.7
P     5.0   -1.4   -4.1
H     1.6   -4.0    5.1
I    -4.9   -3.9   -2.3
H     4.2    5.1   -1.0
N     0.6   -3.9    5.4
I    -0.3    3.6    5.8
I    -3.0    1.2   -6.0
H    -0.4    6.6    1.6
I     2.4   -1.9   -6.1
N     0.6    6.5    1.9
H    -0.0    5.7    3.8
N     0.6    1.0   -6.9
H     0.1   -4.7    5.1
I     2.6   -6.2    1.8
H     1.1    0.1   -6.9
H     4.1    4.0    4.1
C    -3.9    3.9    4.4
H    -3.2    4.8    4.1
I    -2.1   -3.4   -5.8
H    -4.8    5.1   -1.0
H    -0.4    0.9   -7.1
H     5.4    4.7    0.0
H     6.1   -1.5    3.6
C     0.7    6.5    3.4
H     5.5    3.0    4.1
I    -1.3   -7.1   -2.2
H    -4.9    4.0    4.1
H     1.7    6.3    3.7
I     7.2    1.7    1.6
P    -4.0   -6.4   -0.6
I    -2.9    6.8    1.7
H     1.2    7.3    1.6
H     5.9    4.2   -2.3
P     0.6    6.5   -3.9
I    -7.4   -0.9    1.6
I    -6.8    3.3    1.7
H     1.1    1.7   -7.5
C     5.1    3.9    4.4
I     2.5    4.6   -5.8
H    -2.9    3.9    6.2
C     0.7   -3.9    6.9
H     1.3   -3.1    7.2
I     7.6   -0.8   -2.2
I     6.4   -4.6    1.6
N    -3.8    4.0    5.9
I     3.2    7.1   -2.1
P     5.0   -6.4   -0.6
H    -0.3   -3.7    7.3
P     0.7    1.3    8.1
I     4.2   -4.2    5.7
I    -5.9    1.0    5.7
H    -4.4    3.1    6.3
H     4.6    3.1    6.3
H    -7.8   -3.1   -0.3
H     0.3    7.5    3.8
H    -2.8   -1.4    7.8
P     0.5   -4.0   -7.4
P    -3.9   -6.5    3.7
H     5.7    4.8    4.1
I     5.9    1.2   -6.0
I    -4.7   -4.2    5.7
H     1.1   -8.3    1.6
I    -2.0    5.9   -5.8
P    -8.4    1.2   -0.7
H    -3.5   -5.7   -5.4
N     5.1    4.0    5.9
H     1.1   -4.9    7.2
H    -7.5   -3.9   -2.4
I     1.4   -6.5   -5.8
I    -1.3    8.6   -2.2
H    -4.3   -0.4    7.8
H     0.2   -8.1    3.8
H    -4.3    4.8    6.3
H    -7.2    1.6   -5.2
P     5.0   -6.5    3.7
I    -1.5   -6.8    5.7
I    -6.4   -6.2    1.8
C    -3.8   -1.3    8.2
I    -6.5   -1.9   -6.1
P    -3.9    3.9   -7.3
H     4.7   -0.4    7.8
H    -0.5   -9.0    1.6
P    -8.3    1.3    3.7
H     4.7    4.8    6.3
I     6.0    6.8    1.7
H    -4.4   -2.2    7.8
I     3.1   -8.5   -2.1
H     8.5   -3.8   -0.2
C    -8.4   -3.9   -0.6
N     0.5   -9.1    1.9
H     4.6   -2.2    7.8
H    -8.0   -4.9   -0.2
I    -5.8    7.1   -2.1
H     4.0   -6.6   -5.4
I    -3.0   -8.8    1.7
H     6.1    3.9    6.2
N    -8.5   -3.9   -2.1
P     9.5    1.2   -0.7
N    -4.0   -6.6   -5.8
I     6.8   -3.4   -5.8
H     5.5   -5.7   -5.4
P     5.1    3.9   -7.3
C     0.6   -9.1    3.4
C     5.2   -1.3    8.2
H     8.9   -3.1   -2.4
H    -7.3   -4.0    5.1
H    -9.0   -3.1   -2.4
H    -3.0   -1.4   -9.2
I    -0.4   -1.7   -9.7
I     1.5   -1.3    9.6
H    -3.5   -7.4   -5.4
H    -4.9   -6.6   -5.4
H    -7.9    5.6    1.6
I    -6.5    4.6   -5.8
H     1.0    5.5   -8.2
I     2.7    9.4    1.8
P     0.5   -9.1   -3.9
I     8.9    3.9   -2.2
I     8.1   -0.6    5.7
I    -1.9    1.8    9.6
I     3.6    7.3    5.9
H    -8.8    0.8   -4.8
C    -8.3    1.5   -5.4
P    -3.9    9.2   -0.6
H     6.2   -1.4    7.8
I    -9.0    3.9   -2.2
N     5.0   -6.6   -5.8
H     1.6   -9.3    3.7
H    -9.4   -3.8   -0.2
H     0.9  -10.0    1.6
H     1.3    5.4    8.5
H    -4.5   -0.4   -9.2
H     4.5   -0.4   -9.2
C     9.5   -3.9   -0.6
I     2.6    3.4    9.4
H    -7.3    6.3    3.7
I     3.4    2.0   -9.6
H     9.2    0.8   -4.8
P     9.6    1.3    3.7
H    -0.2    6.2    8.3
H    -3.4    8.2   -5.4
H     8.9   -4.8   -2.4
H     4.4   -2.1   -9.2
N     9.4   -3.9   -2.1
I    -1.6    3.5   -9.7
N    -4.0   -1.3   -9.5
H    -9.0   -4.8   -2.4
H    -7.9    0.1   -6.9
N    -3.8   -1.3    9.7
H    -4.4   -5.6   -7.6
H    -4.6   -2.1   -9.2
I    -5.8   -8.5   -2.1
H     4.5   -5.6   -7.6
H    -0.4    6.6   -8.2
H    -3.3   -0.4   10.0
P     5.1    9.2   -0.6
H    -3.0   -6.7   -7.6
I   -10.3   -0.8   -2.2
I    -1.4    8.8    5.7
P    -3.8    9.1    3.7
H    -8.8   -3.0    5.1
H    -0.1   -9.9    3.8
C    -4.0   -6.6   -7.3
H    -8.8    2.5   -5.4
I     7.6   -7.1   -2.2
H    10.2   -3.1   -0.3
H     1.3    7.0    7.9
N    -8.3   -3.9    5.4
I    10.5   -0.9    1.6
N     0.8    6.3    8.6
H     5.5   -7.4   -5.4
C     0.6    6.4   -8.5
H    -3.3   -2.1   10.0
N    -8.3    6.5    1.9
I    -5.4    7.3    5.9
I    -1.9   -4.4    9.6
H     1.0   10.7   -0.2
I     5.9   -8.8    1.7
I     3.5   -8.4    5.9
H    -7.8    7.3    1.6
N     4.9   -1.3   -9.5
I     7.0    5.9   -5.8
N    -8.3    1.0   -6.9
I     1.4    9.1   -5.8
H     9.1    2.5   -5.4
H     9.2   -3.0    5.1
H     4.2   -1.3   10.0
H     8.6    6.6    1.6
H    -7.6   -3.1    7.2
C     5.0   -6.6   -7.3
I   -10.7    1.7    1.6
H    -7.9    1.7   -7.5
I     8.7    3.6    5.8
H     5.9   -1.4   -9.2
H     1.2    7.3   -8.2
N     5.2   -1.3    9.7
H     9.9   -4.9   -0.2
I     2.9   -4.3   -9.7
P    -3.8   -6.5    8.1
C    -8.3    6.5    3.4
H     0.1   10.8   -2.4
P     5.1    9.1    3.7
H    -4.8   -1.3   10.0
C     9.6    1.5   -5.4
H     8.6    0.9   -7.1
I    -5.6    2.0   -9.6
P    -8.3    6.5   -3.9
H     4.1  -10.5   -1.0
H     8.9    5.7    3.8
H    -8.9   -4.7    5.1
H    -9.0    5.7    3.8
H     5.6    8.2   -5.4
H     4.1    9.1   -5.4
I    -9.8   -0.6    5.7
H    10.4   -3.9   -2.4
H     9.0   -4.7    5.1
I    -2.4   11.0    1.6
N    -3.9    9.0   -5.8
I    -6.3    9.4    1.8
I    -9.2    3.6    5.8
C    -8.3   -3.9    6.9
I    -1.0   -5.9   -9.8
H    -3.6  -10.9    0.0
I     2.6   -5.7    9.6
H     4.4   -7.4   -7.6
H     5.7   -0.4   10.0
I    -2.1   -9.7   -5.8
H    -9.3    6.6    1.6
H    -7.9   -8.3    1.6
H    10.0    5.6    1.6
H    -4.6   -7.4   -7.6
I    -5.5   -8.4    5.9
I    -7.6   -6.5   -5.8
H    -4.9  -10.5   -1.0
P    -8.3    1.3    8.1
H    -4.9    9.1   -5.4
P     5.2   -6.5    8.1
I     7.5   -6.8    5.7
N     9.6   -3.9    5.4
H    -0.2    0.4  -11.7
H     5.7   -2.1   10.0
I     7.7    8.6   -2.2
C     0.6   11.7   -0.6
N     9.6    6.5    1.9
H    -7.9   -4.9    7.2
I    11.2    3.3    1.7
H    -0.0    5.6  -10.3
H     6.0   -6.7   -7.6
H    -9.3    0.9   -7.1
H     1.1   -8.4   -8.2
H    -3.4    9.9   -5.4
H     1.2   -8.6    7.9
N     9.6    1.0   -6.9
I    -2.9    6.4    9.5
I    -6.3    3.4    9.4
C    -4.0   -1.3  -11.0
H    -0.4   11.8   -0.2
H     1.5    1.1  -11.7
N     5.1    9.0   -5.8
H     8.6   -3.7    7.3
N     0.6   11.7   -2.1
H     0.1    2.2  -11.7
H    -3.4   -0.5  -11.4
P    -8.4   -4.0   -7.4
N     0.5    6.4  -10.0
I    -0.2  -11.7   -2.2
H    10.7    1.6   -5.2
H     1.5   11.7   -2.4
H     0.2   10.9    5.1
H    -4.5    8.2   -7.6
H     4.5    8.2   -7.6
H    -3.3  -10.8    4.1
H    -8.6    7.5    3.8
I     7.0    1.8    9.6
H     3.9   -1.2  -11.4
N    -4.4  -11.3   -0.6
C     9.6    6.5    3.4
H    -3.1  -11.5   -2.3
H    -2.9    9.0   -7.6
C     0.5    1.2  -12.0
H     5.3  -10.9    0.0
C     0.9    6.8   10.0
H    -3.6   -2.3  -11.4
C     4.9   -1.3  -11.0
N     4.6  -11.3   -0.6
H    -0.5   -9.0   -8.2
H    10.1    0.1   -6.9
P     9.6    6.5   -3.9
P     0.7   -3.8   11.6
I    -7.4   -1.3    9.6
C    -3.9    9.0   -7.3
H     0.4    6.1   10.7
I     4.1    6.2   -9.8
H     1.5    6.4  -10.4
I    -6.1   -4.3   -9.7
I    12.1    0.6   -2.3
H   -12.3   -0.5    1.4
H    10.6   -4.0    5.1
H    -9.3   -3.7    7.3
H   -11.8   -1.5    3.6
H    -7.4   -9.3    3.7
P     0.5   -4.0  -11.8
H     3.9  -11.8    0.0
I   -11.5   -4.6    1.6
C     9.6   -3.9    6.9
H     8.5   -9.0    1.6
H   -12.1    2.7   -1.3
H     9.3    7.5    3.8
H    -8.7   -8.1    3.8
I    -4.8    6.2   -9.8
H    -5.1   -1.2  -11.4
H     1.9    6.9   10.3
C     0.5   -9.2   -8.5
N    -8.4   -9.1    1.9
H     1.3   12.5   -0.3
H    -0.3   -9.4    8.3
H    10.1    7.3    1.6
H     5.6    9.9   -5.4
P    -3.8    3.9   11.4
I     2.1  -12.3    1.7
I     4.2   11.7   -2.3
P     9.7    1.3    8.1
H    10.0    1.7   -7.5
I     2.4  -11.0   -5.8
C     5.1    9.0   -7.3
P     9.5   -4.0   -7.4
H     5.5   -0.5  -11.4
H   -12.4   -2.2    1.4
H     0.1    7.3  -10.4
N     0.7   -9.3    8.6
I   -10.3   -7.1   -2.2
H    -7.7    5.4    8.5
H    -8.0    5.5   -8.2
I     7.4    3.5   -9.7
H     0.3    7.8   10.1
I     7.1   -4.4    9.6
H     0.1   12.5   -2.4
H     0.3   -7.9   10.1
H     5.3   -2.3  -11.4
P    -3.7    9.1    8.1
C    -3.8  -12.1   -1.7
H     1.7   11.6    5.1
H     9.2   -8.1    3.8
H    -5.0  -11.8    0.0
