         400
 sphere cut out from bulk 
H     0.6    0.4   -0.2
C     0.3    1.5    0.1
H     0.2    1.5    1.2
H    -1.7    1.0   -0.3
N    -1.0    1.7   -0.6
H     1.0    2.2   -0.3
H    -0.9    1.7   -1.6
H    -0.9   -2.3    0.7
H    -1.3    2.7   -0.3
H     1.0   -3.0   -0.5
I     2.9   -1.5   -0.2
I    -3.3   -0.7    0.3
C    -0.6   -3.3    0.8
N     0.2   -3.6   -0.5
H    -0.4   -3.4   -1.3
H     0.1   -3.5    1.6
I     1.6    0.7    3.6
H    -1.5   -4.0    0.8
I    -0.6    1.6   -4.0
H     0.5   -4.6   -0.5
H     2.2    2.4   -3.4
I    -1.9   -2.9   -3.4
I     3.8    3.0    0.3
P     4.4    0.3    2.1
H    -0.6    3.9    3.0
H     0.4    3.1    4.2
I    -2.1    4.9    0.4
H     4.1    3.0   -2.1
C    -0.5    3.7    4.0
H    -1.4    3.2    4.4
C     2.9    3.2   -3.8
I     0.1   -3.8    4.3
P    -4.9   -2.5   -2.0
N     4.2    2.9   -3.1
H     2.5    4.2   -3.5
H     4.5    2.0   -3.4
P    -2.1   -0.6   -5.7
I    -4.2    2.6    3.8
P    -5.8    0.3    2.1
P     5.4   -2.5   -2.0
H    -2.6   -4.5    3.5
P     1.7   -1.5    5.8
I    -5.0   -0.2   -4.1
H     3.0    3.1   -4.9
I     4.6   -2.0    4.3
I    -4.2   -5.2   -0.2
I     5.3   -0.2   -4.1
H    -1.4   -5.1   -4.2
N    -0.3    5.0    4.8
H    -5.7    2.0   -3.4
I     6.9   -0.7    0.3
H     4.9    3.6   -3.5
I     3.7   -4.8   -3.6
I     0.3    6.1   -3.5
H     0.6    5.4    4.5
I     1.5   -6.9   -0.2
H    -0.1   -6.6   -2.7
H    -6.1    3.0   -2.1
I    -6.5    3.0    0.3
H     0.9   -5.9   -4.0
H    -4.6   -5.1    2.2
P    -1.2    4.3   -5.8
C    -3.3   -5.3    3.9
H    -5.4    3.6   -3.5
I    -5.6   -2.0    4.3
H    -1.1    5.6    4.7
H    -5.0   -4.1    3.5
N    -6.1    2.9   -3.1
P    -4.9    5.3    2.0
H    -0.2    4.7    5.8
I    -7.4   -1.5   -0.2
H     5.2   -4.1    3.5
I     6.0    2.6    3.8
C     0.1   -6.6   -3.8
I     0.4   -1.6   -7.4
N    -4.6   -5.1    3.3
N    -1.1   -6.1   -4.5
I    -3.8    5.3   -4.1
I    -0.7   -0.5    7.6
P    -2.2    7.2   -1.8
H     3.9    0.4   -6.7
P     5.3    5.3    2.0
H    -2.9   -6.3    3.6
I     2.9    6.3    3.8
I     6.0   -5.2   -0.2
H    -3.4   -5.2    5.0
H     5.7   -5.1    2.2
H    -4.5    2.6    6.2
H    -3.1    1.2    7.5
H    -1.9   -6.7   -4.3
H    -4.0   -2.6    6.7
N     5.6   -5.1    3.3
I    -2.8    2.1   -7.5
H    -1.0   -6.1   -5.5
H     1.9    0.1   -8.1
H     4.9   -5.8    3.6
H    -2.6    2.9    7.5
I     1.7    3.9   -7.3
H     3.1   -5.2   -6.0
H     8.5    1.0   -0.3
H     2.4    1.7   -8.1
H     0.3   -7.6   -4.1
H    -5.3   -5.8    3.6
H     2.8   -3.3   -7.5
C     4.0    0.4   -7.8
P     4.4   -7.4   -1.8
C    -3.3    2.2    7.8
H     5.7    2.6    6.2
I     3.3    0.2    8.2
H    -2.8   -2.2    8.1
N     2.7    0.8   -8.4
I    -3.2    7.0    4.3
I    -6.6   -4.8   -3.6
C    -7.4    3.2   -3.8
P     0.8   -6.5    6.0
N    -4.6    2.6    7.2
H     4.0    6.9   -4.1
I     0.1    4.0    8.1
C    -3.9   -2.4    7.8
I    -3.6   -2.4   -7.9
H     0.8    8.3    3.6
H     1.8    7.8   -4.3
H    -8.1    2.4   -3.4
H     4.9    1.9    7.5
H     4.2   -0.6   -8.1
I    -0.8   -8.3    3.8
H     3.6    8.0   -2.7
I    -5.1    7.7   -0.2
I     2.5   -4.3    7.7
I     5.2    7.7   -0.2
H    -6.4    0.4   -6.7
H    -7.3    3.1   -4.9
I     3.3   -7.5    4.3
H     8.9    2.7   -0.3
I     6.5    5.3   -4.1
N     3.0   -5.4   -7.0
H    -4.5   -1.5    8.1
H     2.0   -5.6   -7.2
H    -5.4    1.9    7.5
I    -0.6    9.4   -0.2
I    -8.7    0.7    3.6
N     9.3    1.7   -0.6
H    -7.7    4.2   -3.5
H     4.7    1.1   -8.1
C     3.4   -4.2   -7.8
H    -9.2    2.2   -0.3
I     8.4   -2.9   -3.4
H     7.6   -4.5    3.5
N     5.6    2.6    7.2
I     8.2    4.9    0.4
C     6.9   -5.3    3.9
H     6.3   -2.6    6.7
C     3.8    8.0   -3.8
H    -1.7    8.7    3.6
P    -5.9   -7.4   -1.8
H     4.5   -4.0   -7.5
H     9.3    1.7   -1.6
P     1.6   -9.3    2.0
H    -9.6    0.4   -0.2
H    -4.9    3.6    7.5
H     9.4   -2.3    0.7
H     8.8   -4.0    0.8
H    -0.9    9.4    2.2
H    -9.2   -3.0   -0.5
I    -3.4   -8.5   -3.5
H    -3.4    2.3    8.9
H    -5.5    1.1   -8.1
H     2.8    0.8   -9.4
H     5.3    3.6    7.5
N     2.6    8.4   -4.5
H     6.8   -5.2    5.0
P     8.1   -0.6   -5.7
I    -2.2   -6.1    7.6
P     0.8    1.2    9.9
C    -6.3    0.4   -7.8
I    -0.4   -6.1   -7.9
H     5.8   -1.5    8.1
C     0.4    9.3    3.9
N    -1.0    9.5    3.3
C    -9.9    1.5    0.1
H    -3.7   -4.4    8.3
H    -6.0   -0.6   -8.1
H     3.6   -6.2   -7.3
H    -6.2    6.9   -4.1
N    -4.3   -3.5    8.6
C     9.7   -3.3    0.8
H   -10.1    1.5    1.2
H     7.3   -6.3    3.6
H    -5.8   -4.0   -7.5
C     6.4   -2.4    7.8
P    -1.2   -3.4   -9.7
H     4.9   -3.8    8.3
I    -7.4    6.3    3.8
H     8.9    3.2    4.4
H     2.7    8.4   -5.5
H     3.3   -4.4   -8.9
P    -8.5   -1.5    5.8
H     7.2    1.2    7.5
I     2.8   -9.2   -4.1
I    -1.4    6.6   -8.0
H     9.8   -3.4   -1.3
H     2.3    9.4   -4.2
I     9.6    1.6   -4.0
H     0.3    9.3    5.0
H     4.6    8.6   -4.0
H    -5.3   -3.8    8.3
H    10.4    1.5    1.2
I     6.6   -2.4   -7.9
H    -3.1   -9.1    4.5
C    10.6    1.5    0.1
H    -3.1    2.9   -9.8
I     4.5   -9.7    0.4
C     6.9    2.2    7.8
H    -7.2   -5.2   -6.0
H     1.0   10.1    3.5
I    -6.9    0.2    8.2
N   -10.1   -3.6   -0.5
H    -6.7    8.0   -2.7
I     7.4    2.1   -7.5
H    -9.7   -4.6   -0.5
H     4.2    9.9   -0.5
H     2.2   10.6    0.8
I     7.0    7.0    4.3
I    -2.9    9.8   -3.6
H     9.6    3.9    3.0
H    10.9    0.4   -0.2
H   -10.2   -3.5    1.6
P     8.0    7.2   -1.8
C    -6.5    8.0   -3.8
N     5.9   -3.5    8.6
H    -4.2   -3.4    9.6
H    -1.2  -10.4   -3.5
P     4.5    8.1    6.0
H    10.3   -3.5    1.6
N    10.4   -3.6   -0.5
H    -5.6    8.6   -4.0
H    -1.3   10.4    3.5
H    -7.4   -3.3   -7.5
I     4.6    5.8    8.3
H     8.9   -5.1   -4.2
I    -6.9   -7.5    4.3
H     2.0   -4.3   10.1
H     7.7    2.9    7.5
H    -9.9    3.1    4.2
I    -8.8   -6.9   -0.2
C    -6.8   -4.2   -7.8
H    -4.8   -8.9    4.7
H     7.4   -2.2    8.1
C     9.8    3.7    4.0
I    -5.7   -9.7    0.4
H   -10.7   -3.4   -1.3
N    -7.6    0.8   -8.4
C   -10.8   -3.3    0.8
N   -11.2    1.7   -0.6
H   -11.1   -2.3    0.7
H   -11.2    1.7   -1.6
H    -7.9    1.7   -8.1
N    -4.0   -9.6    4.8
I     6.8   -8.5   -3.5
H     6.5   -4.4    8.3
I     1.5    8.4    7.6
H     6.8    2.3    8.9
N    -7.3   -5.4   -7.0
H     5.5   -8.9    4.7
H    -3.0    8.4   -7.3
H    11.3    2.2   -0.3
P     1.5    6.2   -9.5
I     0.1  -11.5    0.3
H     1.2  -10.9   -3.5
H     8.3   -6.7   -4.3
P     9.0    4.3   -5.8
I    -5.6    5.8    8.3
N     3.8   10.9   -0.5
H    -8.3    0.1   -8.1
P    -5.8    8.1    6.0
H    -3.5    9.4   -6.0
H    -6.1    9.9   -0.5
I   -10.1   -3.8    4.3
C     3.1   11.2    0.8
H    -6.7   -6.2   -7.3
H     3.3   11.1   -1.3
H    11.3   -3.0   -0.5
P     1.7    6.1    9.8
H     9.1    5.6    4.7
I   -10.9    1.6   -4.0
N    -3.2    3.1  -10.8
H    10.8   -4.6   -0.5
I    -2.0    1.6   11.4
I    -7.7   -4.3    7.7
H    -2.5    1.3  -11.4
H     3.8   11.0    1.6
H    -9.3   -5.9   -4.0
H     0.4  -11.6   -2.1
H     6.0   -3.4    9.6
H    -4.3  -10.6    3.0
H    10.7    3.1    4.2
N     9.1   -6.1   -4.5
I    10.4   -3.8    4.3
H   -11.6    2.7   -0.3
H   -10.9    3.9    3.0
H    -2.4    3.6  -11.1
H    -9.7    5.4    4.5
I    -8.6    3.9   -7.3
H     1.6   -3.3   11.4
I     3.3    8.4   -7.9
I     1.7   -3.8  -11.2
C    -0.8  -11.4   -3.8
H    -3.9   -9.8    5.8
H   -12.0    1.0   -0.3
N     1.8   -4.3   11.1
C   -10.7    3.7    4.0
H    -4.3    1.4  -11.2
H    -6.9   -4.4   -8.9
N     0.5  -11.6   -3.1
H    -7.5    0.8   -9.4
I     0.9   -8.8    8.3
N    -3.6    9.2   -7.0
N    10.0    5.0    4.8
I    -1.4   -1.2  -12.0
I     3.8   10.7    4.3
C    -3.4    1.9  -11.6
I   -10.0    6.1   -3.5
I     1.8   11.6   -3.4
I     3.1    0.7  -11.8
H    -4.1    3.8  -10.9
N    -7.7    8.4   -4.5
P    -1.2   12.0   -2.0
I     9.6   -0.5    7.6
H    -8.5    7.8   -4.3
C    -4.2  -10.8    4.0
I     2.3    3.5   11.6
I     1.1   -1.1   12.2
H    -8.3   -5.6   -7.2
I    11.8    0.7    3.6
H    10.2   -6.6   -2.7
H     1.0   -4.9   11.3
I     5.1   -7.9   -8.0
I    -5.1   -7.9   -8.0
H    -4.6    8.9   -7.2
H   -11.7   -4.0    0.8
N     6.3   -9.6    4.8
H     9.3   -6.1   -5.5
H     7.2   -9.1    4.5
I    -9.9   -1.6   -7.4
H     7.1    2.9   -9.8
H    -0.7  -11.5   -4.9
H     4.7   11.5   -0.5
I    -7.5   -9.2   -4.1
H     6.0  -10.6    3.0
H   -10.3   -6.6   -2.7
H    10.1    4.7    5.8
H    -7.5    8.4   -5.5
I    -0.1    4.4  -11.8
H    -4.3    4.9   10.7
H     2.8   12.3    0.7
N   -10.5    5.0    4.8
I     8.1   -6.1    7.6
H    -3.3  -11.5    4.2
H    -2.7  -12.4   -0.3
I    10.5    6.1   -3.5
C   -10.1   -6.6   -3.8
N    -6.4   10.9   -0.5
H    -1.5  -12.1   -3.4
H     5.9    1.4  -11.2
P    -4.9  -10.2   -5.8
I     2.3  -12.0    3.8
H     8.6    8.7    3.6
I     7.4    9.8   -3.6
P    -8.6   -9.3    2.0
H    -5.6   11.5   -0.5
H     5.7    8.9   -7.2
I    -3.6   -2.9   12.0
H   -10.4    4.7    5.8
C    10.4   -6.6   -3.8
H   -11.6    3.2    4.4
P    -2.2   -8.3   -9.5
H     3.9   -4.1   11.6
H    -6.5   11.0    1.6
H    -5.0  -11.9   -0.3
I    -2.8   -5.7  -11.2
P     5.3  -10.2   -5.8
H    10.8    5.4    4.5
I   -12.1   -2.9   -3.4
H     5.2  -11.9   -0.3
P    -9.5   -6.5    6.0
H    -7.9    9.4   -4.2
H     6.8    9.4   -6.0
I    -2.0  -10.6   -7.3
H    -2.8    3.8   12.2
P    -2.0   -8.4    9.8
I     4.1    5.2  -11.3
H     6.4   -9.8    5.8
H     0.8  -12.6   -3.4
C     6.1  -10.8    4.0
I    10.6   -1.6   -7.4
H    12.4    2.4   -3.4
C     3.1   -4.8   11.8
H    -9.5    8.3    3.6
H     6.2    3.8  -10.9
H    -2.1   10.5   -7.5
