         400
 sphere cut out from bulk 
P    -0.3   -0.0   -0.0
I     1.7    0.4    2.5
I     2.2   -0.3   -2.1
I    -0.2    3.2   -0.7
I    -0.4   -3.2    0.5
I    -2.8    0.3    1.8
I    -2.2   -0.4   -2.7
H     2.9    2.3   -0.4
H     0.0    2.6   -3.2
H    -1.2    3.0    2.9
H    -2.9   -3.2    0.4
H    -0.7   -2.4    3.6
H    -1.1    1.6   -4.0
H     0.6   -3.2   -3.1
H     1.0   -2.2    3.8
C     3.7    2.7    0.2
H     3.3    3.0    1.2
H     3.4   -3.2   -0.5
H     0.8    2.3    4.0
N    -0.3    2.3   -4.1
H     4.5    1.9    0.3
H     4.5   -1.8   -0.5
H    -1.3   -2.3   -4.2
C     0.1   -2.6    4.3
H    -4.6   -1.8   -0.5
H     0.4    1.9   -4.7
H    -4.7    1.9    0.3
H    -1.6    2.2    4.4
C    -1.1    3.1    4.0
H     1.1   -2.3   -4.5
C     0.6   -3.2   -4.1
N    -3.9   -3.5    0.4
C     4.4   -2.9   -0.6
N     0.3    3.1    4.4
H    -4.3   -3.3    1.4
C    -4.7   -2.9   -0.6
H    -4.3   -3.2   -1.6
N    -0.8   -3.2   -4.6
H    -0.1   -2.1    5.2
H     0.8    3.9    4.0
H     0.5   -4.5    3.6
N     4.3    3.9   -0.5
H     3.5    4.6   -0.6
H    -1.3   -4.0   -4.2
H    -4.5    3.6   -1.4
H    -4.1    4.3    0.1
H     4.8   -3.2   -1.6
H    -1.7    4.0   -4.2
N     0.3   -4.0    4.5
C    -0.9    3.5   -4.8
H    -3.9   -4.6    0.3
H     4.9   -3.3    1.4
H     4.6    3.6   -1.4
C    -5.5    2.7    0.2
H    -1.6    3.9    4.4
P     4.3   -0.1    4.4
H     1.1   -4.1   -4.6
P     4.3    0.1   -4.5
N    -4.9    3.9   -0.5
H     0.4    3.1    5.4
P    -0.2    6.3   -0.1
N     5.2   -3.5    0.4
P    -0.2   -6.4   -0.1
I     4.2   -3.2    3.7
H    -0.9   -3.1   -5.6
H    -0.1    4.3   -4.9
P    -4.8   -0.1    4.4
I     1.6    5.9    2.5
I     6.3    0.3    1.8
H    -5.8   -3.2   -0.5
H     5.0    4.3    0.1
H    -0.6   -4.5    4.9
I     1.7    0.6   -6.4
P    -4.9    0.1   -4.5
H    -5.8    3.0    1.2
I    -2.3   -0.5    6.3
H    -6.3    2.3   -0.4
I     2.5   -6.0   -1.9
H     1.0   -4.2    5.1
H    -1.2    3.3   -5.8
I     4.5    3.2   -3.9
I    -2.9    5.9    1.7
I    -2.2   -5.9   -2.6
I    -4.7    3.2   -3.9
H     5.2   -4.6    0.3
I    -5.0   -3.2    3.7
H     6.2   -3.2    0.4
I    -6.9   -0.3   -2.1
I     2.3   -0.6    6.9
H    -5.6    4.6   -0.6
I     4.2   -3.1   -5.1
I     4.4    3.1    5.0
I     2.4    6.7   -1.9
I     6.9   -0.4   -2.7
I     1.7   -6.8    2.5
I    -2.8    0.6   -7.0
I    -2.9   -6.8    1.7
I    -4.8    3.1    5.0
I    -2.2    6.8   -2.6
I    -4.9   -3.1   -5.1
I    -7.4    0.4    2.5
I    -0.2    3.1    8.0
P    -0.3   -0.0    8.7
I    -0.3   -3.1   -8.1
I     6.2    5.9    1.7
P     4.3    6.3    4.4
I    -2.2   -5.9    6.2
H     3.6   -8.0   -0.6
H     3.4    3.2   -7.5
P    -0.3    0.1   -8.9
P     8.9   -0.0   -0.0
P     4.4   -6.4    4.4
I     1.7    6.0   -6.4
P     4.3   -6.3   -4.6
P     4.3    6.3   -4.6
H    -3.9   -3.2    7.3
H     0.5    8.1    3.6
H     7.6    2.2    4.4
H     8.0    3.0    2.9
H    -4.0    8.1    0.3
P    -4.8    6.3    4.4
H     3.7   -3.1   -7.7
P    -4.8   -6.4    4.4
H     8.1    1.6   -4.0
I    -6.7   -6.0   -1.9
P    -4.8   -6.3   -4.6
H    -4.2    3.0    7.6
H     7.8   -2.3   -4.2
P    -4.9    6.3   -4.6
H    -8.1   -2.2    3.8
I     2.3   -5.8    6.8
H    -4.1   -8.3    0.1
I     6.9   -0.5    6.3
H     3.3   -2.3    8.4
I     8.8   -3.2    0.5
H     3.0    2.2    8.6
I     6.3   -6.8    1.7
I    -2.2    6.8    6.2
P    -9.4   -0.0   -0.0
I     1.7   -6.7   -6.4
H     7.5    4.0   -4.2
I     6.3    0.6   -7.0
H     8.4   -2.4    3.6
C     8.0    3.1    4.0
I     7.0   -5.9   -2.6
I    -0.4    9.4    0.5
I    -0.1   -9.5   -0.7
H    -8.1   -2.3   -4.5
H    -0.6    8.2    4.9
H     5.2   -3.2    7.3
H    -8.4    2.3    4.0
H     7.5    3.9    4.4
I     9.0    3.2   -0.7
H     5.0    3.0    7.6
H    -8.5   -3.2   -3.1
H     5.2    8.1    0.3
H     0.8   -8.7    4.0
H    -3.8    2.3   -8.6
I    -2.9    5.9   -7.1
I    -6.7    6.7   -1.9
H    -3.5   -2.2   -8.8
H    -0.0   -8.4   -4.9
H    -1.4    8.6   -4.2
I    -6.8   -0.6    6.9
N     0.2    8.6    4.5
H     3.0    2.3   -9.0
H     7.8   -4.0   -4.2
H     5.1   -8.3    0.1
H     1.0    8.6   -4.6
H    -3.5   -2.3    8.8
N     4.3   -8.8   -0.5
C     3.5    3.2   -8.6
H    -5.6   -8.0   -0.6
H    -1.7   -8.7   -4.2
I    -7.4    0.6   -6.4
I    -7.5    5.9    2.5
C    -4.0   -3.2    8.4
I    -9.3    3.2   -0.7
H    -2.9    9.4    0.4
H    -1.6   -8.7    4.4
H     3.3   -4.0    8.4
H     1.0    8.4    5.1
H     3.0    4.0    8.6
H    -5.5   -3.1   -7.7
I     2.3    6.8    6.8
H     0.6    9.4   -3.1
N    -3.9    9.1    0.4
H     3.3   -2.2   -9.1
H    -5.7    3.2   -7.5
I    -0.4   -3.2    9.4
N     8.3   -3.2   -4.6
N     3.8   -3.1   -8.7
H    -9.1    2.6   -3.2
N     8.8    2.3   -4.1
C    -8.6   -3.2   -4.1
N    -4.9   -8.8   -0.5
H    -3.8    2.2    9.0
H     9.2    2.6   -3.2
I     6.9    6.8   -2.6
I    -9.5   -3.2    0.5
H     3.4    9.5   -0.5
H    -8.7    1.9   -4.7
N    -4.3    3.1    8.6
H    -1.1   -9.6    2.9
H    -8.4    3.9    4.0
N     3.7   -3.2    8.8
C     3.4    3.1    9.0
I    -0.2    3.3   -9.6
H    -8.1   -4.1   -4.6
I    -2.9   -6.7   -7.1
H    -4.5   -9.0   -1.4
H    -3.8    4.0   -8.6
C     8.3    3.5   -4.8
H    -3.5   -4.0   -8.8
H     4.7   -9.0   -1.4
H     3.3   -9.7    1.2
H     7.9    3.3   -5.8
C    -0.8   -9.1   -4.8
C    -9.0   -2.6    4.3
H    -3.5   -4.1    8.8
H     3.0    4.1   -9.0
C     0.6    9.5   -4.1
N    -8.9    3.1    4.4
N     4.9    3.1    8.6
H     5.4    2.3   -8.6
H    -8.6   -4.5    3.6
C     5.2   -3.2    8.4
H    -4.3    9.4    1.4
I    -7.5   -6.8    2.5
N    -4.2    3.2   -9.0
C    -4.0   -3.1   -9.2
C    -1.1   -9.6    4.0
H     8.2   -3.1   -5.6
H     3.3   -3.9   -9.1
H    -8.1   -4.2    5.1
C     9.2   -2.6    4.3
H    -3.8    3.9    9.0
N     5.2    9.1    0.4
N     0.3   -9.6    4.4
H    -5.9   -2.3    8.4
H     0.1  -10.1   -3.2
H    -4.4    9.5   -1.6
N    -0.9    9.5   -4.6
N    -9.5    2.3   -4.1
C     3.7  -10.0    0.2
H     4.9    9.4    1.4
H     5.7   -2.2   -8.8
H     9.1   -2.1    5.2
N     4.9    3.2   -9.0
N    -8.9   -4.0    4.5
H     5.3    2.2    9.0
N    -5.4   -3.1   -8.7
H     5.6   -2.3    8.8
H     2.9  -10.3   -0.4
H     9.8   -3.2   -3.1
H     4.8    9.5   -1.6
C     4.4    9.8   -0.6
P    -0.3    6.3    8.7
C    -5.7    3.2   -8.6
H    -8.8    3.1    5.4
H    -9.9   -2.4    3.6
H     8.6   -4.5    4.9
H    -9.2   -2.1    5.2
H     9.6    1.9   -4.7
P    -0.3   -6.4    8.7
H    -6.2    2.2    8.6
P    -0.2   -6.3   -8.8
N    -5.4   -3.2    8.8
N     9.4    3.1    4.4
C    -4.8    9.8   -0.6
H    -0.8   10.3    3.6
H     5.4    4.0   -8.6
P    -0.3    6.4   -8.8
P     8.9    6.3   -0.1
I     4.1    9.4    3.7
C     0.1   10.1    4.3
H     9.9    2.3    4.0
C     5.2   -3.1   -9.2
I    -2.8    0.4   10.6
I     2.3   -0.4  -10.7
P     9.0   -6.4   -0.1
H     3.7   -3.2    9.9
H     0.4   -9.5    5.4
I     7.0   -5.9    6.2
H    -5.9   -4.0    8.4
C     9.7   -3.2   -4.1
H    -0.9    9.5   -5.6
H    10.2   -2.2    3.8
H   -10.2    1.6   -4.0
H    -5.9   -2.2   -9.1
H    -1.2   -9.4   -5.8
H     3.4    3.1   10.1
C    -5.7    3.1    9.0
N    -0.3  -10.3   -4.1
H    -5.8    9.5   -0.5
H    -6.2    2.3   -9.0
I     6.3    5.9   -7.1
H   -10.3    3.0    2.9
I    10.9    0.4    2.5
H     5.7   -4.0   -8.8
H     9.1    4.3   -4.9
H     0.8  -10.4    4.0
I     4.5   -9.4   -3.9
N     9.4   -4.0    4.5
H     5.4    3.9    9.0
H    -1.3   10.3   -4.2
H     1.0   10.5    3.8
I    -4.6   -9.4   -3.9
H     5.6   -4.1    8.8
H     9.7   -4.5    3.6
I    -6.8   -5.8    6.8
H     6.2    9.4    0.4
H    -9.2    4.3   -4.9
P    -9.4    6.3   -0.1
H    -4.2    3.2  -10.0
H    -6.2    4.0    8.6
P    -9.3   -6.4   -0.1
I    -5.0    9.4    3.7
H    -5.8   -9.7    1.2
I     1.7    0.4   11.2
C    -5.4  -10.0    0.2
H     1.1   10.4   -4.5
H     9.5    3.1    5.4
H     9.9    3.9    4.0
H    -3.9   -3.1  -10.3
N   -10.0   -3.2   -4.6
H    10.2   -2.3   -4.5
C   -10.3    3.1    4.0
I    -7.4    6.0   -6.4
I     6.9    6.8    6.2
H    -1.6  -10.5    4.4
H   -10.5   -2.3   -4.2
I    -2.3   -0.3  -11.3
H    -5.9   -3.9   -9.1
I    11.4   -0.3   -2.1
I     6.3   -6.7   -7.1
H     4.5  -10.7    0.3
H     5.0    3.2  -10.0
I     4.2    9.5   -5.1
I     4.4   -9.5    5.0
H    -6.1    4.1   -9.0
C   -10.0    3.5   -4.8
H    -4.7  -10.7    0.3
I   -11.4   -0.4   -2.7
H    -5.5   -3.2    9.9
H     0.5  -10.8   -4.7
I    -4.7   -9.5    5.0
H    -9.7   -4.5    4.9
H     4.5   10.9   -0.5
H    -1.0  -11.0   -4.0
H    -0.1   10.6    5.2
H   -10.7    2.2    4.4
H    -4.7   10.9   -0.5
I    -6.8    6.8    6.8
I    -7.4   -6.7   -6.4
H    10.2   -4.1   -4.6
H     5.2   -3.1  -10.3
I    -5.0    9.5   -5.1
H   -10.1   -3.1   -5.6
H   -10.5   -4.0   -4.2
H    -5.8    3.1   10.1
H    -6.3  -10.3   -0.4
I   -12.0    0.3    1.8
H    10.2   -4.2    5.1
H     7.5   -8.7   -4.2
H    12.0    2.3   -0.4
H   -10.8    4.0   -4.2
H    -1.3    3.1   11.8
H   -10.8    3.9    4.4
H     7.5   -8.7    4.4
H   -10.4    3.3   -5.8
I     6.3    0.4   10.6
I    -2.9    5.8   10.5
H     7.8    8.6   -4.2
I     2.3   -5.7  -10.7
I     8.8   -3.1   -8.1
H    -8.7    8.1    3.6
I     9.0    3.1    8.0
P     8.9   -0.0    8.7
I    -0.1   -9.5    8.0
H    -0.9   -3.3   12.0
H   -12.1   -3.2    0.4
H     3.2    8.6    8.4
H    -0.1   -2.0  -12.3
H     3.4   -9.4   -7.5
I    10.8    5.9    2.5
P     8.9    0.1   -8.9
I    -0.4    9.6   -8.1
H     0.4    3.2  -12.1
H     3.0   -8.7    8.6
I     1.7  -12.2    2.5
H    -4.0    9.5    7.3
I    10.9    0.6   -6.4
P    -0.3   12.6   -0.0
H    -8.1    8.6   -4.6
I    -9.3    3.1    8.0
P    -0.2  -12.7   -0.0
I     2.2   12.3   -2.1
I    -2.3   12.2   -2.7
H    -8.4   -8.7    4.0
