         400
 sphere cut out from bulk 
P    -2.0    0.1   -0.0
I     0.1   -0.8   -2.3
I     0.0   -0.8    2.3
H     2.5   -0.5    0.8
H     2.8    0.3   -1.5
I    -0.7    3.0    0.1
C     3.5    0.0    0.5
H     3.4    1.1    0.7
H     0.0    1.5    3.4
N     3.6   -0.1   -1.0
H    -0.5    1.8   -3.5
H     3.6   -1.1   -1.2
H    -0.9   -4.1    0.1
I    -3.2   -2.9   -0.0
H     4.3   -0.5    1.0
N     0.1    2.5    3.7
H    -0.7    3.0    3.3
H     1.0    2.9    3.4
H     4.4    0.3   -1.3
H     0.7   -4.6   -0.2
I    -4.1    0.9    2.3
C    -0.4    2.9   -3.8
I    -4.1    1.0   -2.2
N    -0.2   -4.8    0.3
H     0.5    3.3   -3.5
H    -0.0   -4.8    1.3
H    -3.7    3.4    0.1
H    -1.3    3.4   -3.5
I     3.2    3.5   -2.2
H    -3.5   -1.6   -3.6
I     3.1    3.6    2.3
H    -4.0   -1.3    3.4
P     1.7   -2.5    4.5
P     1.6   -2.5   -4.5
P     1.6    5.2   -0.0
H    -3.2   -2.8    3.4
H    -2.8   -3.2   -3.5
I     3.7   -3.4   -2.3
I     3.8   -3.4    2.3
C     0.0    2.5    5.2
C    -3.6   -2.6   -3.9
N    -4.0   -2.3    3.8
H     0.9    2.0    5.6
H    -0.9    2.1    5.6
N    -0.4    2.8   -5.3
C    -4.4    4.2   -0.1
H     0.3    2.3   -5.7
C    -0.8   -6.1   -0.1
I     3.4    0.1    5.2
H    -1.0   -6.1   -1.2
I     3.5    0.0   -5.2
H    -1.3    2.4   -5.7
I    -0.1   -5.1    3.9
H    -4.6    4.2   -1.2
I    -0.2   -5.1   -3.9
H    -3.0    5.7   -0.2
H    -1.7   -6.3    0.4
H    -4.6   -3.1   -3.5
H    -4.9   -2.7    3.4
H     0.1    3.6    5.5
H    -6.5    0.3   -1.3
H    -3.1   -1.8    5.6
H    -6.6   -0.5    1.0
H    -5.4    4.0    0.4
H    -2.7   -2.3   -5.7
H    -3.7    5.5    1.3
N    -3.9    5.5    0.3
H     5.5    4.0    0.4
H    -0.4    3.8   -5.7
H    -0.0   -6.9    0.1
I    -0.5   -1.6   -6.8
N    -3.6   -2.7   -5.4
C    -4.0   -2.3    5.3
I    -0.4   -1.6    6.8
I     6.8    1.0   -2.2
I     0.0    6.9   -2.3
I     6.8    0.9    2.3
I     0.1    6.9    2.3
P     5.3   -5.1   -0.0
N    -7.3   -0.1   -1.0
H     6.0   -2.7    3.4
P     5.2    2.7   -4.6
P     5.3    2.7    4.6
C    -7.4    0.0    0.5
H    -7.3   -1.1   -1.2
I    -3.8    5.2    3.9
H    -4.4   -2.2   -5.8
H    -7.5    1.1    0.7
P    -5.6   -5.1   -0.0
I    -3.9    5.2   -3.9
H    -4.9   -1.7    5.6
H     6.3    4.2   -1.2
H    -4.1   -3.3    5.6
C     6.5    4.2   -0.1
H    -3.7   -3.7   -5.7
P    -5.6    2.7    4.6
P    -5.7    2.7   -4.6
H    -4.6    6.3    0.1
I    -3.5    1.7   -6.8
H     6.9   -1.3    3.4
I     2.9   -7.3    0.1
H     6.3   -3.1   -3.5
I    -3.5    1.7    6.8
H     7.2    3.4    0.1
H     2.4   -6.9   -3.5
N     6.9   -2.3    3.8
I    -7.1   -3.4    2.3
I    -4.1   -6.7    2.3
I     7.7   -2.9   -0.0
I    -4.1   -6.8   -2.2
H    -8.1    0.3   -1.5
I    -7.2   -3.4   -2.3
H     7.4   -1.6   -3.6
H     2.7   -0.9    7.9
H     6.0   -1.7    5.6
H    -8.4   -0.5    0.8
I     4.0    7.4   -0.0
H     2.6    7.3   -3.5
H     3.5    0.3   -7.8
H     3.0   -7.3    3.3
I     3.2   -4.2   -6.8
I     3.2   -4.2    6.8
C     7.3   -2.6   -3.9
H     2.3    7.6    3.4
I     3.6    4.3   -6.7
I    -7.7    3.5   -2.2
H     7.7   -2.8    3.4
H     4.2   -7.0   -3.5
I    -7.8    3.6    2.3
H     6.3    6.3    0.1
P     8.9    0.1   -0.0
N     7.0    5.5    0.3
H     1.9   -1.1   -8.7
I     3.8    4.4    6.8
C     6.9   -2.3    5.3
C     3.2   -7.5   -3.8
H     6.5   -2.2   -5.8
H     4.4    7.1   -3.5
I    -7.5    0.1    5.2
H    -0.8   -4.8    7.6
I    -7.4    0.0   -5.2
H     4.0    7.5    3.4
P    -2.0   -7.7    4.6
I    -0.5    6.1   -6.8
P    -2.0   -7.7   -4.6
H     7.2    5.5    1.3
H     0.9   -4.8    7.8
I    -0.5    6.2    6.8
H     3.3   -6.5   -5.7
P    -2.1    7.8   -4.5
P    -2.0    7.8    4.5
P    -2.0    0.1    9.1
H    -0.1    9.2   -1.2
H    -0.2   -4.1   -8.3
C     3.6    7.7   -3.9
P    -2.1    0.0   -9.1
I     0.3    2.2   -9.1
I     0.4    2.3    9.1
H     8.1   -3.2   -3.5
H     4.6   -7.5    3.4
N     3.4    0.3   -8.8
H     2.7    1.1   -9.0
N     3.2    8.0    3.8
H     6.8   -3.3    5.6
H     3.6    6.6   -5.7
N     3.7   -7.8    3.7
N     7.3   -2.7   -5.4
C     2.9   -0.9    9.0
H     3.8   -6.7    5.5
H     3.1    7.0    5.6
H    -3.7    4.0    7.8
I     7.0    5.2   -3.9
I    -0.5   -9.3   -2.2
I     7.1    5.2    3.9
I    -3.4   -5.9    6.8
I    -0.4   -9.4    2.3
H     2.7    1.1    9.2
N     0.0   -5.3    8.1
C     2.8   -1.0   -9.2
H     3.2   -8.5   -3.5
I    -3.6   -6.0   -6.7
N     3.2   -7.5   -5.3
H     7.9    5.7   -0.2
H     2.0   -1.1    9.5
H     7.8   -1.8    5.6
H     3.5   -1.8   -9.0
I     6.8   -6.7    2.3
H    -3.0    4.7   -8.1
H     4.3    0.6    8.9
I     6.8   -6.8   -2.2
H     0.7   -5.6   -8.1
H    -2.8    5.5    7.8
H     7.2   -3.7   -5.7
H     0.6    9.9    1.0
H    -1.1    9.9    0.8
H     2.3   -7.9   -5.7
N     3.6    7.6   -5.4
N     3.4    0.4    9.4
C    -0.2   -5.2   -8.6
H     3.6   -1.7    9.2
H    -3.8   -9.2    0.7
H     0.0   -6.3    7.8
H    -1.1   -5.6   -8.3
C     3.7   -7.8    5.2
H     3.7    8.7   -3.6
C     3.2    8.0    5.3
I    -6.9    7.4   -0.0
H     3.3    9.0    3.4
H     3.7   -8.8    3.4
I     7.4    1.7   -6.8
I     7.4    1.7    6.8
H    -6.5    7.1   -3.5
H     4.2    0.5   -9.3
N    -3.7    5.1    8.1
N    -0.1   10.2   -1.0
I    -4.4   -2.1   -9.0
H     8.2   -2.3   -5.7
H     2.7   -8.2    5.6
H    -6.3   -7.5    3.4
H    -6.7   -7.0   -3.5
I    -4.3   -2.1    9.2
C    -0.2   10.3    0.5
P     1.7  -10.2   -0.0
H     2.9    8.2   -5.8
H    -4.5    5.5    7.6
I    -3.5    9.5   -2.3
I    -3.7    9.5    2.3
H    -2.8  -10.0   -1.3
H     2.4    8.6    5.6
P    -9.2   -2.5    4.5
I    10.1    3.0    0.1
P     1.7    5.3    9.1
P     1.6    5.2   -9.1
H     4.0   -8.0   -5.7
H    -4.8    4.7   -8.3
H    -0.1   -4.1    9.8
P    -9.3   -2.5   -4.5
H     2.6   -0.9  -10.3
P    -9.3    5.2   -0.0
H    -7.4    0.3   -7.8
H    -6.9    7.5    3.4
C    -3.9    5.2   -8.6
H     0.8   10.6   -1.3
H    -0.9   10.6   -1.5
H     9.6    3.4   -3.5
H    10.0   -4.1    0.1
I    -7.1    4.4    6.8
I    -8.0   -7.3    0.1
H     4.5    8.0   -5.7
I    -7.3    4.3   -6.7
H    -9.9    2.9    3.4
C    -0.1   -5.1    9.6
I     0.2   -8.6   -6.8
I     0.1   -8.6    6.8
C    -3.8  -10.3    0.5
H     4.1    8.5    5.6
H     3.6    0.3   10.4
I   -10.8   -0.8   -2.3
H     4.5   -8.4    5.6
H    -4.5  -10.0   -1.5
H    -6.6    0.6    8.9
H    10.4    1.8   -3.5
N    -3.7  -10.4   -1.0
I    -7.7   -4.2    6.8
H    -3.9    6.2   -8.3
H    10.2    3.0    3.3
I    -7.7   -4.2   -6.8
H     9.2   -6.3    0.4
I   -10.9   -0.8    2.3
I    10.9   -0.8    2.3
H    -2.9  -10.8    1.0
H   -10.2   -4.6   -0.2
H    -7.1   -6.7    5.5
N    -7.2   -7.8    3.7
H    -7.9   -7.3    3.3
I    11.0   -0.8   -2.3
H     6.1    4.7   -8.3
C    -7.3    7.7   -3.9
I     6.5   -2.1   -9.0
C    -7.7   -7.5   -3.8
N    -0.1   -5.3  -10.1
H     9.6    2.4   -5.7
H     6.4    5.5    7.6
H    -7.3    6.6   -5.7
H     7.2    4.0    7.8
H    -8.2   -0.9    7.9
H    -0.2   11.4    0.7
H    -1.0   -5.6    9.9
H    -6.7    0.5   -9.3
I    -0.5   -1.7  -11.3
H   -10.4    3.3   -3.5
I     6.6   -2.1    9.2
H    -2.9    4.7   10.1
H    -8.5   -6.9   -3.5
C    10.5    2.9   -3.8
H   -10.9    1.5    3.4
H    10.9    1.5    3.4
H     0.8   -4.9  -10.4
I    -0.4   -1.5   11.4
H    -7.6   -6.5   -5.7
H     0.7   -5.6   10.1
C    -3.8    5.2    9.6
H    -8.3    7.3   -3.5
I     7.3   -6.0   -6.7
N    -7.5    0.3   -8.8
I    -0.2   10.4   -5.2
H    10.0    2.1    5.6
I    -0.2   10.4    5.2
H    -0.9   -4.9  -10.5
P     5.3   10.4   -0.0
H   -10.0    2.0    5.6
H     7.1   -9.2    0.7
P     5.4   -5.1    9.1
H     9.9   -6.1   -1.2
H    -3.7    4.0  -10.3
P     5.3   -5.1   -9.1
I     7.5   -5.9    6.8
H    -6.4    8.0   -5.7
N    10.7   -4.8    0.3
N   -10.8    2.5    3.7
N    -7.7    8.0    3.8
P    -5.5   -5.1    9.1
H    -7.4   -1.8   -9.0
I    -4.1    8.7    6.8
H    -4.7  -10.8    0.8
C    -7.2   -7.8    5.2
N    -7.3    7.6   -5.4
I    -4.2    8.8   -6.8
C    10.1   -6.1   -0.1
P    -5.6   10.4   -0.0
N    11.0    2.5    3.7
H    -7.3   -1.7    9.2
N    -3.8    5.0  -10.1
P    -5.6   -5.1   -9.1
H    -7.8    7.0    5.6
H    -7.2    8.7   -3.6
H    -7.2   -8.8    3.4
H    -6.4   -8.4    5.6
I     3.1   11.3    2.3
I     3.1   11.3   -2.2
H    -4.7    4.7    9.9
I     3.8  -11.1   -2.3
I     3.7  -11.1    2.3
N    -7.7   -7.5   -5.3
H    -8.6    7.6    3.4
H    10.9   -4.8    1.3
N     7.2    5.1    8.1
H     6.4  -10.0   -1.5
N    -7.4    0.4    9.4
H    -7.7   -8.5   -3.5
H    -6.9   -8.0   -5.7
H   -10.9   -4.8    1.3
I    -3.6    1.7  -11.3
I    -3.4    1.8   11.4
I   -11.6    3.0    0.1
C    -8.0   -0.9    9.0
N    10.5    2.8   -5.3
I    -3.8  -10.2    5.2
H   -11.4    1.8   -3.5
H    -3.6  -11.5   -1.2
H    -0.1   -6.3  -10.3
N   -11.1   -4.8    0.3
H    -2.9    5.5  -10.4
I    -3.8  -10.3   -5.2
H    -0.3  -11.7    3.4
I     7.2    9.5    2.3
H    -6.8    8.5    5.6
H   -10.6    2.3   -5.7
H    -8.2    1.1   -9.0
C     7.0    5.2   -8.6
H     7.9    4.7   -8.1
I     7.3    9.5   -2.3
H    -3.8    6.3    9.8
H    -7.6    9.0    3.4
C    -7.7    8.0    5.3
C   -11.3    2.9   -3.8
C    -8.1   -1.0   -9.2
C   -10.9    2.5    5.2
H    -1.0    9.4    7.9
H    -8.2    1.1    9.2
H    11.4    3.3   -3.5
C    10.9    2.5    5.2
H    -0.2    8.6   -9.0
H   -11.6    3.0    3.3
H     0.1  -11.9   -3.6
H    11.6   -4.6   -0.2
I    10.7   -5.1   -3.9
H     6.2  -10.8    0.8
I     3.1   -4.2  -11.3
I    10.4   -1.6   -6.8
H   -11.8   -4.1    0.1
H     8.1    5.5    7.8
I     2.8    8.2   -9.0
C     7.1  -10.3    0.5
H     7.0    6.2   -8.3
H    10.5    3.8   -5.7
I    10.8   -5.1    3.9
I     3.3   -4.2   11.4
H    -9.0   -1.1   -8.7
H    -0.1    8.6    9.2
