         400
 sphere cut out from bulk 
I     1.7   -0.8   -0.5
H    -0.4   -1.9    0.0
N    -1.3   -2.3    0.4
H    -1.5   -1.9    1.3
H    -2.0   -2.0   -0.3
H    -0.4    3.5   -0.2
H     2.9   -0.1    2.5
H     2.2   -1.8    2.7
I    -1.9   -0.7    3.4
I    -3.4   -0.8   -1.9
H    -1.1    3.6    1.5
C    -1.3   -3.8    0.4
C    -1.2    3.9    0.4
H    -2.2    3.5    0.0
P     3.3    1.5   -2.1
H    -1.7   -0.1   -3.8
C     3.1   -1.2    2.7
H    -0.4   -4.2    1.0
H    -1.1   -4.2   -0.6
I     0.7    3.2   -3.0
H    -0.1   -0.2   -4.5
H     3.8   -1.6    1.9
H    -2.2   -4.2    0.8
N    -1.1   -0.2   -4.7
P     3.3   -3.0   -2.4
I     3.9    3.2    0.5
H    -1.2   -2.3   -4.5
I     2.4   -0.6   -4.6
I     0.5    3.5    4.1
N    -1.2    5.3    0.3
I     0.6   -4.5   -3.1
H    -1.3    0.5   -5.4
C    -1.5   -1.6   -5.3
N     3.8   -1.3    4.0
H    -0.3    5.8    0.7
H     3.2   -1.0    4.8
I     0.8   -4.4    3.8
H    -5.3   -1.6    1.9
H    -1.4    5.7   -0.6
I     4.0   -4.5    0.3
H    -4.4   -0.8    4.0
I     5.7   -0.8   -1.9
P    -1.2    1.6    5.7
I    -5.2    3.2    0.5
H    -2.0    5.8    1.0
H     4.7   -0.8    4.0
H    -2.5   -1.6   -5.5
H     4.0   -2.3    4.2
P    -5.8    1.5   -2.1
I     1.2   -0.6    6.3
H    -0.9   -1.7   -6.2
I    -3.9    3.2   -4.0
P    -1.1   -2.9    5.8
H     2.1    6.0   -1.8
P     3.3    4.8    3.2
C    -6.0   -1.2    2.7
H    -6.2   -0.1    2.5
N    -5.3   -1.3    4.0
I    -5.1   -4.5    0.3
P    -1.2    4.7   -5.0
H    -5.1   -2.3    4.2
P    -5.8   -3.0   -2.4
I    -3.9    3.1    5.1
H     3.0    0.6   -6.6
H     3.7    6.2   -1.0
I     5.2    3.2   -4.0
H     7.1   -2.0   -0.3
I     1.6    7.1    1.4
C     3.1    6.6   -1.8
I    -3.9   -4.7   -4.3
H     4.0    5.4   -3.3
I    -7.4   -0.8   -0.5
P     3.3   -6.2    2.9
I    -3.8   -4.5    4.8
H    -6.9   -1.8    2.7
H    -5.9   -1.0    4.8
I    -1.9    7.0   -2.7
H     6.9    3.5    0.0
I     5.2    3.1    5.1
H     2.3    2.8   -7.0
I    -0.7    2.8   -7.4
H    -0.9    5.7    5.4
H     7.6   -1.9    1.3
I    -2.9   -0.7    7.4
I     7.2   -0.7    3.4
P    -1.3   -6.2   -4.9
N     3.7    6.4   -3.1
I    -3.5    6.9    2.5
H     6.9   -4.2    0.8
I    -6.7   -0.6   -4.6
H    -5.1    5.4   -3.3
P    -5.8    4.8    3.2
N     7.8   -2.3    0.4
I     5.2   -4.7   -4.3
H     2.6    0.8    7.8
N     3.2    1.0   -7.5
H    -5.4    6.2   -1.0
H     2.8    7.6   -1.7
H     3.1    6.7   -3.9
H     7.4   -0.1   -3.8
H     2.7   -7.8   -1.7
H     4.1    2.8   -6.8
I     5.3   -4.5    4.8
C     3.2    2.5   -7.5
H     2.4    0.7   -8.2
I     1.4   -8.4    1.4
H     6.6   -1.6   -5.5
C     7.9   -3.8    0.4
H    -0.9   -7.6    4.2
C     7.9    3.9    0.4
H    -4.5    6.9   -3.1
H     3.5    3.0    7.5
H     3.4   -4.8   -6.6
H     8.0    3.6    1.5
H    -0.7    7.8    4.2
H     4.7    6.9   -3.1
N    -5.4    6.4   -3.1
H     4.1    0.6   -7.9
N    -0.7    6.6    6.0
H    -5.0    2.8   -6.8
H     8.7   -1.9    0.0
H    -1.1   -6.8    5.8
I    -0.7   -4.7   -7.6
P    -5.8   -6.2    2.9
I     1.3    7.0   -5.5
H    -6.1    0.6   -6.6
H     0.3    6.7    6.1
H     8.0   -4.2   -0.6
I    -0.5    2.9    8.6
C    -6.0    6.6   -1.8
I    -3.1   -0.9   -8.5
N     3.4    1.1    8.4
I    -2.1   -8.5   -2.7
H     4.3    0.7    8.1
H     7.1    5.8    1.0
I     5.7    6.9    2.5
N     8.0   -0.2   -4.7
C    -1.3   -7.6    5.2
H    -7.0    6.0   -1.8
H    -5.0    0.6   -7.9
H     7.9   -2.3   -4.5
H     8.7    3.5   -0.2
C     7.6   -1.6   -5.3
H    -4.8    0.7    8.1
I     2.7    7.2    5.5
I    -8.4    3.2   -3.0
C    -1.2    7.8    5.2
H     7.8    0.5   -5.4
I    -0.5   -4.6    8.3
C     2.9   -8.9   -1.8
C     3.4    2.6    8.5
N     7.9    5.3    0.3
H    -2.3    7.7    5.1
H    -2.4   -7.7    5.1
H     3.3    2.9   -8.5
H     2.5   -4.8    7.9
H    -1.2    6.5    6.9
I    -3.6   -8.5    2.5
H     7.7    5.7   -0.6
N    -5.9    1.0   -7.5
H     8.7   -4.2    1.0
H    -9.5   -1.9    0.0
I     6.2   -0.7    7.4
H     2.3   -4.9   -8.1
H    -0.5   -9.7    0.7
H     2.5    3.0    8.9
I     1.0   -0.7   -9.7
H    -6.0    6.7   -3.9
H    -5.6    3.0    7.5
C    -5.9    2.5   -7.5
C     3.3   -5.2   -7.6
H     2.0   -9.5   -1.8
P     7.9    1.6    5.7
H    -1.6   -9.7   -0.6
H     3.2    0.7    9.3
H    -0.7   -1.6    9.8
H     3.6   -9.2   -1.0
H    -2.1   -9.7    1.0
H     4.3   -4.7    7.7
H    -5.7   -4.8   -6.6
H     3.0   -8.7   -3.9
H    -6.3    7.6   -1.7
H     9.0   -0.2   -4.5
I    -8.3   -4.4    3.8
I    -2.7    6.9   -6.8
I    -8.6    3.5    4.1
I    -7.9   -0.6    6.3
H    -9.5    3.5   -0.2
I    -8.5   -4.5   -3.1
H     4.5   -8.5   -3.1
H    -6.5    0.8    7.8
I     1.1   -8.4   -5.5
H    -6.8    2.8   -7.0
H    -4.6   -8.5   -3.1
N    -1.4  -10.1    0.3
N     3.6   -9.0   -3.1
H    -4.8   -4.7    7.7
N    -5.7    1.1    8.4
I     2.6   -8.3    5.5
H    -6.4   -7.8   -1.7
H    -9.2   -0.2   -4.5
P     8.0   -2.9    5.8
P     3.5    9.2    2.9
H     2.6   -7.1   -7.0
C     3.5   -5.1    8.3
I     7.2    7.0   -2.7
I    -7.5    7.1    1.4
H     8.2   -1.7   -6.2
P    -1.4    1.4  -10.2
I     5.5   -8.5    2.5
H     4.1   -4.9   -8.3
H    -9.5   -4.2    1.0
H    -0.9    8.7    5.8
P     7.9    4.7   -5.0
H     4.3    2.9    9.1
I     6.0   -0.9   -8.5
P    -1.1    9.2   -4.9
H     8.8    5.8    0.7
C    -5.7    2.6    8.5
H    -6.7    0.7   -8.2
H    -1.1    0.6   10.5
H    -5.8    2.9   -8.5
N   -10.4   -2.3    0.4
N     3.3   -6.7   -7.6
H     0.2   -8.8    6.1
N    -0.9   -8.8    6.0
H    -4.8    2.9    9.1
P    -1.3   -3.0  -10.2
H     3.3   -7.0    7.4
I     9.9    3.2   -3.0
I    10.8   -0.8   -0.5
H    -5.5   -9.2   -1.0
H    -2.3   -1.5   10.5
H   -10.6   -1.9    1.3
H    -5.0   -4.9   -8.3
C    -1.3   -1.5   10.7
H   -10.2    3.6    1.5
C    -5.8   -5.2   -7.6
C    -6.2   -8.9   -1.8
C   -10.3    3.9    0.4
H     4.2   -7.1   -7.3
N    -5.5   -9.0   -3.1
H     3.6   -4.7    9.3
I    -6.4    7.2    5.5
I     9.7    3.5    4.1
H   -10.2   -4.2   -0.6
C   -10.4   -3.8    0.4
H    -5.9    0.7    9.3
H    -9.4    5.8    0.7
I     9.7   -4.5   -3.1
P     7.8   -6.2   -4.9
H    -1.1   -9.7    5.4
N     3.5   -6.6    8.3
H    -1.4    6.4   -9.1
H     2.8    8.3   -7.0
P    -5.7    9.2    2.9
H     3.8  -10.0   -3.3
C    -5.6   -5.1    8.3
N    -0.9   -0.1   11.2
N   -10.2   -0.2   -4.7
H   -11.1   -2.0   -0.3
H    -4.9   -7.1   -7.3
H    -0.9   11.2   -0.6
I    -2.9   -8.5   -6.8
H    -1.3   -8.9    6.9
H    -0.3   11.3    1.0
H    -6.6   -4.8    7.9
I     7.0   -8.5   -2.7
H    -6.1   -8.7   -3.9
H     8.2    5.7    5.4
I     0.8   10.9   -3.1
H     6.7   -7.7    5.1
H   -10.8   -0.1   -3.8
H     0.1   -0.1   11.4
H    -2.0   11.2    0.8
I    -7.7   -8.4    1.4
H   -10.3   -2.3   -4.5
I     8.4    2.8   -7.4
H    -6.6    3.0    8.9
H     6.8    7.7    5.1
I   -11.0   -0.7    3.4
I    10.0   -4.4    3.8
H     3.1   -7.1   -8.5
P     3.2  -10.7    3.2
H     3.0   -1.1  -11.2
H    -6.8   -4.9   -8.1
N   -10.3    5.3    0.3
I     6.4    6.9   -6.8
C    -1.1   11.6    0.4
I     2.6   -0.5   11.3
N    -5.8   -6.7   -7.6
C    -1.4  -11.6    0.4
I     4.1   10.9    0.3
H    -1.0   -2.2   11.4
H     2.8   -7.0    9.0
I     1.0   11.0    3.8
H    -5.8   -7.0    7.4
H     3.5    8.4    7.4
H    11.3   -1.8    2.7
I    -2.5    7.0    9.1
H   -10.4    0.5   -5.4
H   -11.3    3.5    0.0
H    -5.5   -4.7    9.3
H    -5.3  -10.0   -3.3
H     0.1    6.5   -9.9
I    -7.8    7.0   -5.5
H   -10.0   -1.7   -6.2
I    -6.5   -8.3    5.5
H    -6.5   -7.1   -7.0
P    -1.4  -10.7   -5.0
C   -10.6   -1.6   -5.3
P   -10.3    1.6    5.7
N    -0.9    6.5  -10.0
H     4.4   -7.0    8.6
H     4.4    8.3   -7.3
H   -10.5    5.7   -0.6
H     7.0   -9.7    1.0
H    -0.5  -12.0   -0.2
I    -4.1    3.0  -10.9
H    -7.1   -9.5   -1.8
H     8.0   -6.8    5.8
H    -1.1    5.6  -10.5
N    -5.6   -6.6    8.3
H     8.2   -7.6    4.2
I    -5.0   10.9    0.3
H    -4.7   -7.0    8.6
H    -1.3  -11.9    1.5
P    -1.0    4.8   11.0
H    -4.7    8.3   -7.3
I    10.3   -0.6    6.3
C     7.8   -7.6    5.2
P   -10.2   -2.9    5.8
H   -11.3   -4.2    0.8
N     3.5    8.7   -7.6
H    -2.3  -12.0    0.0
H    -1.5    0.1   12.1
N     8.4    6.6    6.0
H     8.4    7.8    4.2
I    -3.8   10.8   -4.3
C     7.9    7.8    5.2
H    12.0   -0.1    2.5
I     8.5   -4.7   -7.6
I     5.0    3.0  -10.9
H     7.6   -9.7   -0.6
H    -1.3   -6.9  -10.2
H     3.3    8.3   -8.5
I     0.4    3.4  -11.9
P   -10.3    4.7   -5.0
H     7.9    6.5    6.9
I    11.5   -0.6   -4.6
I     8.6    2.9    8.6
I    -3.6   10.9    4.8
H   -11.1    5.8    1.0
N     3.6   -1.4  -11.9
H     6.8   -1.5   10.5
H    -5.7    8.4    7.4
I     0.6  -12.2   -3.0
H     3.8   -2.4  -11.7
H    -6.3    8.3   -7.0
C    12.2   -1.2    2.7
I     6.2   -8.5   -6.8
H    -8.8    6.7    6.1
I     0.4  -11.9    4.1
I    -9.8    2.8   -7.4
P    -5.9  -10.7    3.2
H    -6.0   -7.1   -8.5
I    -8.1   -0.7   -9.7
P    -1.1   -6.1   11.0
P    12.4    1.5   -2.1
I    -2.7   -8.4    9.1
H     3.0    8.5    9.0
I    -4.0   -4.6  -11.1
I   -12.5   -0.8   -1.9
N     3.7    8.9    8.3
N     7.7  -10.1    0.3
I     1.5    7.1   10.4
H   -10.0    5.7    5.4
I    -2.1   -0.8  -12.6
H    -6.1   -1.1  -11.2
H     4.5   -0.9  -11.9
I     3.7  -12.2    0.5
I     5.3   10.8   -4.3
H    -4.6   -0.9  -11.9
I     8.6   -4.6    8.3
H    11.2    6.0   -1.8
H    -1.5   -9.0   -9.1
I    -8.0   -8.4   -5.5
P     7.7    1.4  -10.2
N    -5.6    8.7   -7.6
I     2.5    7.1  -10.5
I    10.7    7.1    1.4
H    -4.5    8.5    8.6
I    -3.7    3.4   11.9
H     4.6    8.5    8.6
H   -11.6   -1.6   -5.5
P    12.4   -3.0   -2.4
H     8.6   -9.7    0.7
I     0.7   -4.5  -12.1
H     3.6   10.6   -6.6
H     8.4   -1.6    9.8
