         400
 sphere cut out from bulk 
H    -0.4    0.4   -0.7
C    -0.9   -0.6   -0.7
H    -1.2   -0.8    0.3
H     0.8   -1.8   -0.7
N    -0.1   -1.7   -1.2
H    -1.8   -0.5   -1.3
H     0.2   -1.5   -2.2
I     1.2    2.3    1.0
H    -0.6   -2.6   -1.3
H    -0.9    2.3    3.0
I     3.7   -1.0   -0.7
I    -2.4   -0.8    3.0
I    -0.2    2.5   -3.2
I     2.0   -1.4    3.5
I    -3.2    2.8    0.3
H     2.4    2.3   -2.8
P     3.8    0.7    2.0
H     3.5    1.2   -2.3
P    -0.5    4.4   -0.6
N     3.4    2.2   -2.6
H     3.7    2.7   -1.8
N    -1.1    2.8    3.9
I     1.4   -1.6   -4.5
I    -5.2   -1.0   -0.7
H    -2.1    2.7    4.1
I    -2.2   -4.4   -2.1
H    -1.0    3.8    3.6
I    -0.8   -4.9    2.1
P    -0.6   -2.9    4.5
H    -0.5    1.4    5.3
P    -5.1    0.7    2.0
H     0.8    2.6    4.8
I    -3.0   -0.8   -4.6
H    -3.6    2.4   -3.6
C    -0.3    2.5    5.0
I     2.2   -5.1   -1.6
H     3.3   -3.9    2.8
H    -5.3    1.2   -2.3
H    -3.6   -4.5    1.4
P    -0.5    0.7   -5.9
P     4.0   -3.0   -3.3
H     3.8   -4.7    0.5
H    -5.2    2.7   -1.8
C     4.2    2.5   -3.8
I     5.6    2.8    0.3
H     3.9    1.8   -4.6
H    -0.4   -4.4   -4.6
N    -5.5    2.2   -2.6
I    -0.8    6.1    2.1
I     2.1    5.9   -1.6
C    -4.7    2.5   -3.8
H     2.6    5.5    2.5
P    -4.8   -3.0   -3.3
H     2.6   -5.5    2.5
C     3.6   -4.9    2.6
H    -0.6    3.1    5.9
I     4.1    2.6    4.6
H    -4.3    5.0    1.2
P    -0.5   -6.7   -0.6
H     4.0    3.6   -4.1
H     5.3    2.4   -3.6
N     4.4   -5.0    1.4
H     4.6    5.0    1.2
N    -4.5   -5.0    1.4
H    -5.1   -4.7    0.5
H    -4.9    1.8   -4.6
H     5.2   -4.5    1.4
I    -4.8    2.6    4.6
I     6.4   -0.8    3.0
H     7.0   -0.5   -1.3
H     3.8   -1.7    5.8
H    -0.4    5.0   -5.2
H    -4.9    3.6   -4.1
I    -2.3    6.6   -2.1
H    -5.5   -3.9    2.8
H     3.7    6.3    0.5
I    -0.3   -1.1    7.3
C    -0.1   -5.0   -5.4
H    -6.5    2.3   -2.8
H    -4.2   -6.0    1.2
N     4.3    6.0    1.4
C     3.5    6.1    2.6
H     3.9    0.0    6.4
I     5.8   -0.8   -4.6
H     0.9   -4.9   -5.7
H     4.1   -5.3    3.4
I     2.1    2.1   -7.0
H    -3.7    6.5    1.4
N    -4.6    6.0    1.4
H     7.6   -0.8    0.3
H     4.6   -6.0    1.2
C    -5.3   -4.9    2.6
H     4.1    5.7    3.4
I    -6.8   -1.4    3.5
H    -0.8   -3.6   -6.9
C     4.1   -1.0    6.7
H    -4.7   -5.3    3.4
H    -5.0   -1.7    5.8
I    -3.1   -4.3    5.8
H    -3.7   -1.2    6.9
C     7.9   -0.6   -0.7
H    -0.3   -6.1   -5.2
I     1.3   -5.2    6.0
I    -7.6    2.3    1.0
H    -0.5    6.6   -4.6
H    -0.9   -7.2    3.6
H    -5.0    0.0    6.4
C    -0.2    6.0   -5.4
H     2.3   -1.3    7.7
H    -5.1    6.3    0.5
N    -1.0   -4.6   -6.6
H    -4.8    5.7    3.4
H    -2.0   -4.8   -6.4
C    -4.7   -1.0    6.7
I     6.6   -4.4   -2.1
H    -8.1   -1.8   -0.7
I    -2.3    2.8   -7.5
H     6.7    2.7    4.1
H     3.2    7.1    2.8
H     4.2   -1.8   -7.0
H     0.8    6.1   -5.7
H     3.4   -0.3   -7.7
H     5.2    6.5    1.4
I     1.2    5.9    6.0
I    -6.6   -5.1   -1.6
H     8.5    0.4   -0.7
C    -5.4    6.1    2.6
I    -0.7   -1.4   -8.4
H    -0.7    8.5   -1.3
H    -4.6   -1.8   -7.0
N     3.3   -1.4    7.9
H     2.7   -2.0   -8.0
H    -6.2   -5.5    2.5
H     5.2   -1.2    6.9
H    -6.3    5.5    2.5
H     8.3   -2.6   -1.3
I     4.3   -4.8   -5.9
C     3.6   -1.4   -7.9
I    -3.2   -8.2    0.3
I    -7.5   -1.6   -4.5
H     8.0    2.3    3.0
I     1.3   -8.7    1.0
I    -4.6   -4.8   -5.9
H    -8.6   -1.5   -2.2
N     8.8   -1.7   -1.2
I    -6.7    5.9   -1.6
H    -0.7   -5.2   -7.4
N     7.7    2.8    3.9
N    -1.1   -8.2    3.9
I    -0.2   -8.5   -3.2
H     3.5   -2.4    8.1
N    -8.9   -1.7   -1.2
H    -2.0    6.3   -6.4
I    -2.4    3.1    8.4
H    -9.2    0.4   -0.7
N    -1.0    6.4   -6.6
I     5.8   -4.3    5.8
H     3.8   -8.3   -1.8
H     0.7    9.2   -0.7
P     3.9    4.5    7.2
H    -0.8   -8.8    3.0
P    -0.6    8.1    4.5
I     2.1    2.4    8.9
H     3.6   -0.8    8.7
H     4.1   -7.5   -4.1
P     8.3    4.4   -0.6
I    -3.2    6.7    5.8
H    -5.4   -0.3   -7.7
N    -0.1    9.4   -1.2
H     9.1   -1.5   -2.2
H    -0.8    5.8   -7.4
H    -2.1   -8.3    4.1
H     2.4   -8.7   -2.8
H     7.9    3.8    3.6
H    -5.6    7.1    2.8
I     4.2    6.2   -5.9
P     4.0    8.0   -3.3
I     8.6    2.5   -3.2
C    -5.2   -1.4   -7.9
I     6.6    6.6   -2.1
H     0.1   -5.0    8.3
I     8.1   -4.9    2.1
H     0.8   -8.4    4.8
N    -5.6   -1.4    7.9
I    -4.7    6.2   -5.9
H    -8.1    2.6    4.8
H    -4.8   -7.5   -4.1
H    -3.5   -0.9   -9.1
P    -5.0    4.5    7.2
H     0.2    9.6   -2.2
H     9.6   -1.8   -0.7
C    -9.8   -0.6   -0.7
H    -9.5   -2.6   -1.3
P     8.3   -2.9    4.5
N     3.5   -8.9   -2.6
P    -0.6    0.8    9.8
H    -0.5   -7.9    5.9
H    -5.1   -8.3   -1.8
P    -4.9    8.0   -3.3
C    -0.2   -8.6    5.0
I    -9.1    2.5   -3.2
I    -6.8    2.1   -7.0
I     5.7   -8.2    0.3
H     8.4    1.4    5.3
H    -3.5   -8.7   -3.6
H    -5.4   -2.4    8.1
H   -10.1   -0.8    0.3
H    -0.9    7.4   -6.9
H    -1.9   -4.0    9.2
H    -5.3   -0.8    8.7
H    -6.6   -1.3    7.7
C     8.6    2.5    5.0
P     3.9    4.2   -8.5
H     0.1    6.0    8.3
N    -4.4   -1.5   -9.1
N     4.4   -1.5   -9.1
C     4.3   -8.5   -3.8
H    -6.1   -2.0   -8.0
P     8.4    0.7   -5.9
I     8.0    6.1    2.1
H    -0.5   -3.2    9.8
H    -1.3   10.2    0.3
I     6.5    2.8   -7.5
P    -9.4    4.4   -0.6
I     1.9    9.6    3.5
I    10.1    2.3    1.0
C    -4.6   -8.5   -3.8
I     4.2   -8.4    4.6
H    -9.7    2.3    3.0
H    -0.8    4.9    9.2
H    -4.1   -2.5   -9.3
P     4.0   -6.6    7.2
I     1.3    9.4   -4.5
C    -1.0   10.5   -0.7
H     6.9   -4.8   -6.4
I     5.7    6.7    5.8
H     5.3   -0.9   -9.1
H     8.4   -4.4   -4.6
H    -1.1    2.7  -10.1
H     8.3    3.1    5.9
N    -0.2   -5.2    9.3
I     3.6   10.0   -0.7
I    -4.7   -8.4    4.6
C    -1.0   -4.1    9.8
H    -0.3  -10.7   -0.7
P    -5.0    4.2   -8.5
N    -5.4   -8.9   -2.6
H     4.7   -2.5   -9.3
C    -9.1    2.5    5.0
P     8.4   -6.7   -0.6
H     3.9   -1.2  -10.0
H     3.6   -9.9   -2.3
H   -10.7   -0.5   -1.3
H     5.3   -8.7   -3.6
H    -1.9   10.5   -1.3
H    -9.3    1.4    5.3
P    -9.4   -2.9    4.5
I     1.4   -5.2   -9.4
P    -4.9   -6.6    7.2
H    -7.9   -4.9   -5.7
N    -0.2    5.8    9.3
I    -7.6   -5.2    6.0
H    -0.4   -9.6    5.3
I    -2.5   10.3    3.0
I    -9.6   -4.9    2.1
H     4.0   -9.2   -4.6
H     9.6    2.6    4.8
I     6.5    3.1    8.4
H    -0.7   -6.1    9.2
N   -10.0    2.8    3.9
P    -9.3    0.7   -5.9
H     8.5    5.0   -5.2
H    -9.8    3.8    3.6
I     1.3    5.8   -9.4
H    -6.4   -8.7   -2.8
H    -5.0   -1.2  -10.0
H     8.1   -3.6   -6.9
H     0.7   -5.3    9.8
H    -9.3   -4.4   -4.6
P     3.9  -10.4    2.0
H     6.8    6.3   -6.4
I     8.5   -1.1    7.3
I    10.2   -1.6   -4.5
N     7.9   -4.6   -6.6
I    -3.3   -0.7   10.8
I    -5.2   10.0   -0.7
H     0.9    1.8  -11.1
H     8.0   -7.2    3.6
I    -2.2   -8.2   -7.5
I    -7.6    5.9    6.0
I     3.6   -4.6    9.7
H     0.6    5.7    9.8
H    -4.9   -9.2   -4.6
H    -5.2   -9.9   -2.3
H    -0.4   11.4   -0.7
I    -6.8    2.4    8.9
C     8.7   -5.0   -5.4
P    -9.3   -6.7   -0.6
H     6.8   -8.3    4.1
I    10.9   -1.4    3.5
H    -9.4    3.1    5.9
I     2.2   -8.9   -7.0
P    -0.4   -3.1  -11.1
P     4.0   -6.8   -8.5
H    -8.0    6.1   -5.7
C    -0.8    3.0  -11.2
I    -7.6   -8.7    1.0
H     3.7    9.3    5.8
I    -3.1   -4.6  -10.2
I     1.1   -1.3   11.5
H     8.4    6.6   -4.6
I    -9.7    6.1    2.1
C    -0.9  -11.6   -0.7
C    -9.0   -5.0   -5.4
I    -3.1   10.2   -4.6
P    -5.0  -10.4    2.0
I   -11.3   -0.8    3.0
H     8.5   -6.1   -5.2
H    -2.0    7.0    9.2
H    -1.8  -11.5   -1.3
H    -9.3    5.0   -5.2
H    -1.3   -4.4   10.8
I    -9.2   -1.1    7.3
H    11.2    2.3   -2.8
H    -0.5    1.0  -11.7
I    -2.3   -8.0    8.4
I     8.2   -1.4   -8.4
N     0.0    1.9  -11.7
H     8.2    8.5   -1.3
H    -0.3    3.9  -11.2
C     8.7    6.0   -5.4
H    -1.2  -11.8    0.3
H     3.6    2.7   11.0
P    -4.9   -6.8   -8.5
P    -0.4  -10.4   -5.9
N     7.8   -8.2    3.9
I    -5.3   -4.6    9.7
H   -11.0    2.7    4.1
C    -1.1    6.9    9.8
N     7.8    6.4   -6.6
I   -11.1   -4.4   -2.1
I     3.8    2.5  -11.2
I     5.5   -0.7   10.8
H    -5.1    9.3    5.8
C    -9.1    6.0   -5.4
H     6.9   -4.0    9.2
H    -9.2   -6.1   -5.2
I     3.5    6.4    9.7
H     8.2   -5.2   -7.4
H     8.1   -8.8    3.0
I    11.1   -5.1   -1.6
I    -6.9    9.6    3.5
H     9.8   -4.9   -5.7
H    -1.7    3.1  -11.8
H     3.4    8.6    8.1
H    -8.1    9.2   -0.7
H    -9.3    6.6   -4.6
I    -0.4   10.0    7.3
H     4.2    9.3   -7.0
H     2.7    9.1   -8.0
I     2.3   -1.6  -12.1
I    -2.3  -11.8    3.0
H    -9.7   -3.6   -6.9
P     3.7   11.7    2.0
H     8.1    5.8   -7.4
P     8.2    8.1    4.5
I   -12.1    2.8    0.3
I    -3.2    6.4  -10.2
I     6.4   10.3    3.0
H    -5.2    2.7   11.0
H    -4.4    1.4   11.7
H    -4.7    9.3   -7.0
H    -0.5    7.8    9.8
H     4.5    1.4   11.7
I    -5.1    2.5  -11.2
H    -8.0   -8.4    4.8
I     2.1   -8.7    8.9
I     8.7   -8.5   -3.2
H    -3.8    9.8    6.9
I    11.0    5.9   -1.6
I     5.8   -4.6  -10.2
I    12.5   -1.0   -0.7
H     2.2    9.8    7.7
H    -9.7   -7.2    3.6
I     5.8   10.2   -4.6
I     3.8  -12.1   -0.7
C     4.0   10.0    6.7
H    12.4    1.2   -2.3
H     0.3  -12.5   -2.2
N    12.2    2.2   -2.6
H     7.6   10.2    0.3
N    -9.8   -4.6   -6.6
H     7.0   10.5   -1.3
N    -0.0  -12.7   -1.2
I    -2.1   -0.9  -12.5
I   -11.9   -0.8   -4.6
H    -1.4    6.7   10.8
N     4.2    2.4   11.8
I    -9.5   -1.4   -8.4
H    -9.5    8.5   -1.3
