         400
 sphere cut out from bulk 
P    -0.6    1.0    0.5
I     1.5    0.1   -1.7
I    -1.9   -2.0    0.5
H     1.9   -2.3    0.1
I     1.5   -0.0    2.8
I    -2.8    1.9   -1.6
H    -0.0   -3.8    0.4
C     2.0   -3.3    0.7
H    -2.3   -1.5   -2.8
H     1.9   -3.1    1.8
I     0.7    3.9    0.7
N     0.9   -4.2    0.3
I    -2.6    1.8    2.9
H     4.0    0.4    1.5
H     4.2    1.3   -0.8
H     1.0   -4.4   -0.8
H    -1.2   -2.1    3.9
H     1.5    2.1   -3.8
H     3.0   -3.7    0.5
H    -1.3   -2.3   -4.0
C    -2.3   -2.0   -3.8
H     5.0   -0.2   -0.6
N     5.0    0.8   -0.3
C     5.0    0.9    1.2
H     0.8    3.9    3.3
H    -2.3   -0.1    4.6
H    -2.2   -0.1   -4.8
P     3.0   -1.6   -4.0
H    -5.1    1.3   -0.7
H     1.0   -5.1    0.8
H     0.6    4.3   -3.1
H    -5.1    0.4    1.6
H    -3.0   -2.2    3.9
C    -2.1   -2.1    4.5
I     1.2   -4.2   -3.3
H     5.0    2.0    1.4
N    -2.8   -0.9   -4.7
H    -3.0   -2.8   -3.8
C     1.5    3.0   -4.5
H     0.6    2.4    5.2
N    -2.2   -0.9    5.3
N     1.4    4.2   -3.7
H     2.2    4.4   -3.1
I     5.1   -2.5   -1.6
H    -3.8   -0.6   -4.5
H    -2.7    5.2    0.8
H    -5.9   -0.2   -0.6
H     0.6    2.9   -5.2
N    -5.9    0.8   -0.3
P    -4.2   -4.2    0.5
H     5.9    1.3   -0.7
H     5.8    0.4    1.6
H    -1.4   -0.8    5.9
N     0.9    4.3    4.3
P     3.1   -1.6    5.1
C    -6.0    0.9    1.2
H     2.3    2.9    5.0
I     1.0   -0.7   -6.2
C     1.3    3.3    5.3
I     1.4   -4.3    4.5
H    -2.1   -3.0    5.2
H     2.4    3.0   -5.1
H    -0.1    4.6    4.5
H    -6.0    2.0    1.4
I     5.2   -2.6    2.9
H    -2.8   -1.3   -5.7
H    -2.6    6.0   -0.8
I     4.4    4.5   -1.8
I    -5.8   -2.5   -1.6
H    -0.7    6.6    0.5
H    -3.1   -0.9    5.9
N    -2.7    6.1    0.3
I    -2.8   -5.9   -1.8
I     5.0    0.9   -4.6
H     1.5    5.1    4.3
P    -4.2    3.6   -3.9
H     1.3    5.1   -4.4
P     3.1    6.1    0.5
H    -6.7    1.3   -0.8
I    -2.1    2.5   -6.1
I    -5.8   -2.6    2.9
I    -2.7   -5.8    2.8
H    -6.9    0.4    1.5
I     4.6    4.5    2.8
I     0.8   -0.7    7.2
C    -1.7    7.1    0.7
I    -2.4    6.1   -3.3
H     1.3    3.7    6.3
P    -4.3    3.6    5.0
H    -3.6    6.6    0.4
I    -6.0    0.9   -4.6
I     4.9    1.0    5.8
H    -1.8    7.3    1.8
I     4.3   -6.4    0.7
P    -0.6   -6.8   -3.9
I    -2.3    6.1    4.5
P     6.7   -4.2    0.5
H     4.2   -6.1   -3.1
I    -6.5    4.5   -1.8
H     3.6   -5.7    4.5
I     1.4    7.8   -1.6
I    -2.2    2.7    7.4
H    -1.8    8.0    0.1
I    -6.3    4.5    2.8
H     1.3   -3.2   -7.6
I     4.7   -3.4   -6.1
I    -2.2   -5.2   -6.2
I     1.5    7.7    2.9
I    -6.0    1.0    5.8
H    -5.1   -6.0   -3.1
P    -0.6   -6.8    5.0
H     5.0   -5.3   -4.4
H     5.1   -5.3    4.3
H     7.2   -0.6   -4.5
H     4.5   -6.5    3.3
P    -0.6    0.9   -8.5
I     8.2    1.9   -1.6
P     6.7    3.6   -3.9
I     0.9   -8.4   -1.6
N     4.5   -6.1    4.3
N     5.0   -6.1   -3.7
H    -2.3   -8.4    1.4
H    -8.0   -3.7    0.5
H     0.4   -4.8   -7.5
H    -5.8   -5.3    4.3
I    -3.0   -1.3   -8.3
H     5.9   -6.0   -3.1
I     8.3    1.8    2.9
P    -7.9   -1.6   -4.0
C     1.3   -4.3   -7.9
P     6.7    3.6    5.0
H     7.9   -2.2    3.9
H    -6.0   -5.3   -4.4
I    -2.1   -5.0    7.3
I     1.0   -8.6    2.9
H     2.2   -4.8   -7.4
H     0.6   -3.9    8.2
H     8.6   -1.5   -2.8
H     7.9   -2.8   -3.8
H    -1.4   -9.1   -0.7
I    -6.6   -6.4    0.7
I     1.8    3.1   -8.5
I     4.5   -3.2    7.4
I     1.0    6.9   -6.1
N    -5.9   -6.1   -3.7
H    -5.4    2.1   -7.2
I     9.1   -2.0    0.5
H     5.5    2.1   -7.2
H    -9.0   -2.3    0.1
I    -6.3   -3.4   -6.1
H    -1.5    5.6   -7.4
H     3.6    1.4   -8.6
H     4.6    0.0   -8.2
H     2.3   -3.9    8.3
H     4.3    7.5   -3.8
N     8.1   -0.9   -4.7
P    -7.9   -1.6    5.1
H     4.7    0.8    8.3
I     5.1    5.1   -6.2
C    -8.9   -3.3    0.7
I    -9.4    0.1   -1.7
C     8.6   -2.0   -3.8
P    -0.7    8.7   -4.0
H    -6.7   -6.1   -3.1
P    -0.5    1.0    9.6
H    -3.1   -9.1   -0.8
H    -4.4    1.4   -8.5
H    -6.4   -6.5    3.3
H    -9.1   -3.1    1.8
C    -2.3   -9.4    1.2
N     1.4   -4.3    8.7
H     8.6   -0.1    4.6
N    -2.3   -9.5   -0.3
N    -6.4   -6.1    4.3
H     7.3    6.6    0.4
H     8.3    5.2    0.8
I    -9.5   -0.0    2.8
H     7.9   -0.9    5.9
P     3.0   -9.4    0.5
N     4.5    0.9   -8.7
H    -3.3    5.6   -7.5
I     5.4    8.3    0.5
I    -5.8    5.1   -6.2
H     4.3    8.1    3.9
H     8.8   -0.1   -4.8
P    -7.9    6.1    0.5
I    -5.5    8.3    0.5
H     4.3   -7.4   -5.2
H     8.1   -1.3   -5.7
H    -2.2    5.0    8.4
H     1.4   -5.3    8.4
C    -5.3    1.9   -8.3
I     1.5   -7.8   -6.1
C     5.1   -7.4   -4.5
C     8.8   -2.1    4.5
C     5.0   -7.1    5.3
H    -1.5   -9.9    1.6
I     8.1   -5.9   -1.8
P    -0.6    8.8    5.1
H    -4.9   -7.3   -5.1
I     1.8    3.2    9.5
I    -2.9   -1.2    9.7
C     5.6    1.9   -8.3
C    -2.3    6.1   -7.9
N     8.7   -0.9    5.3
H    -8.7    4.4   -3.1
H    -5.0   -7.4    5.0
H     3.7    1.4    9.4
H     8.3    6.0   -0.8
N     8.2    6.1    0.3
H     1.4   10.2   -0.6
I    -6.4   -3.2    7.4
I     0.9    7.1    7.4
H    -5.0    8.1   -4.0
H    -4.9    8.2    3.9
H    -7.4   -5.7    4.5
H    -9.4    2.1   -3.8
H    -8.6    2.9    5.0
H    -6.3    0.0   -8.2
H     5.0   -6.6    6.3
H    -6.2    0.8    8.3
H     5.2    7.4    5.2
P    10.3    1.0    0.5
P    -4.3   -4.2   -8.5
C    -5.8   -7.4   -4.5
N     4.6    1.0    9.3
H    -8.5    3.0   -5.1
I     5.2    5.3    7.3
N     1.3   -4.4   -9.3
H     4.3   -7.9    5.2
H     5.2   -8.2   -3.8
C     4.9    8.4   -3.8
I     8.3   -5.8    2.8
H     5.0    8.8   -2.8
H    -3.2   -9.9    1.5
H    -4.3    1.5    9.5
H     0.5   -4.0   -9.8
H    -1.4    6.5    8.3
H     9.6   -2.3   -4.0
C    -6.0   -7.1    5.3
H    -5.7    7.4    5.2
H     9.7   -2.1    3.9
C     5.2    8.2    4.5
H    -2.4    7.1   -7.6
H     8.9   -3.0    5.2
I    -5.7    5.3    7.3
H    -5.7   -8.2   -3.8
H     2.2   -4.0   -9.7
I     1.5   -7.7    7.4
H     6.0   -7.4    5.0
H    -6.7    7.5   -3.8
H    -5.4    2.8   -8.9
I    -2.3   -9.5   -4.6
H     6.0   -7.3   -5.1
H    -2.3  -10.5   -0.6
N    -2.3    6.0    8.7
H     6.0    8.1   -4.0
I    -2.1   10.5   -1.7
H     5.5    2.8   -8.9
H     4.6    0.7   -9.8
H     6.6    1.4   -8.5
H     4.7    0.1    9.8
N   -10.0   -4.2    0.3
N    -6.4    0.9   -8.7
H    -9.9   -4.4   -0.8
C    -9.4    3.0   -4.5
I     0.8   -0.8  -10.8
P     3.0    6.1   -8.5
H    -6.0   -6.6    6.3
H     0.4   10.8    1.5
H    -3.1    6.5    8.2
I    -2.2   10.3    2.8
H     6.1    8.2    3.9
C    -6.0    8.4   -3.8
H     1.3   -3.1   10.4
I     8.5    6.1   -3.3
C    -5.8    8.2    4.5
H    -5.4    2.9    9.1
I   -10.3    3.9    0.7
I     8.8    2.5   -6.1
H    -6.0    8.8   -2.8
H    -2.3    4.9   -9.6
H     5.6    2.9    9.1
I    -9.7   -4.2   -3.3
C     1.3   -4.2   10.2
N    -9.5    4.2   -3.7
H     2.2   10.8    1.6
H     1.4   -5.4   -9.6
H    -1.8   -8.3   -7.2
H    -6.7    8.1    3.9
I    -2.2    2.6  -10.7
H    -9.9   -5.1    0.8
C    -5.3    1.9    9.7
P    -4.2   -4.2    9.5
H     9.5   -0.8    5.9
N     1.4   11.2   -0.3
I    -2.4   -9.4    5.8
H    -6.7   -7.4   -5.2
N    -6.3    1.0    9.3
H   -10.1    3.9    3.3
N    -2.3    5.9   -9.3
H     3.5    9.8   -4.5
H    -7.3    1.4   -8.6
I    -9.6   -4.3    4.5
C     5.7    1.9    9.7
C     1.3   11.3    1.2
C    -9.6    3.3    5.3
N     4.5    9.4   -4.7
I     8.6    6.1    4.5
H     1.3  -10.4    4.6
H     0.4   -4.7   10.5
H    -9.4    5.1    4.3
H    10.9   -3.8    0.4
H   -10.9   -3.8    0.4
P   -11.5    1.0    0.5
H     4.5    9.0   -5.7
H     1.5  -10.5   -4.8
I     7.9   -1.3   -8.3
I     5.2  -10.2   -1.7
P     6.7   -4.2   -8.5
H    -6.7   -7.9    5.2
H    -6.3    0.1    9.8
H     0.5   11.6   -0.8
H   -10.4    4.3   -3.1
H    -6.3    0.7   -9.8
C     9.3    7.1    0.7
H     6.6    1.5    9.5
H    -9.6    5.1   -4.4
H    -1.4    6.4   -9.7
N   -10.1    4.3    4.3
I   -10.0   -0.7   -6.2
I     8.8    2.7    7.4
P     3.1    6.2    9.5
I    -2.7    9.7   -6.2
H     2.2   -4.7   10.6
H    -1.8   -7.6   -8.9
H   -10.3    2.4    5.2
H     9.2    7.3    1.8
H     2.2   11.6   -0.7
H    -0.1  -10.9   -4.5
I    -5.8  -10.2   -1.7
I     5.1  -10.4    2.8
I     1.0   -0.6   11.8
H   -10.3    2.9   -5.2
H     4.2    9.5    5.9
I     8.7   -5.2   -6.2
H    -1.7   -7.5    9.1
N     5.1    9.5    5.3
C    -1.7   -8.5   -8.3
H    -7.3    1.4    9.4
I     4.5   -3.3  -10.6
H     7.8   -9.1   -0.8
H    -9.6    3.7    6.3
H     8.6   -8.4    1.4
I    -2.1   -5.1  -10.7
H    -1.4    5.6   10.6
P    -4.2   11.3    0.5
H     7.7    5.6   -7.5
H    -3.1    6.4   -9.8
C    -2.3    6.1   10.2
I     1.3   11.2   -4.6
H     9.2    8.0    0.1
I    -5.8  -10.4    2.8
H    10.3    6.6    0.5
H     1.3  -11.8   -2.8
H    -5.4    2.1   10.8
P    -7.9   -9.4    0.5
H    -1.4   -0.8  -12.2
N     0.8  -11.3   -4.7
I    11.6    3.9    0.7
H     5.5    2.1   10.8
H    -5.0    9.6    5.9
N    -5.9    9.5    5.3
H     5.0   10.3    4.6
N    -6.4    9.4   -4.7
H    -0.7   -8.9   -8.5
H    -3.2    5.7   10.5
I    -2.1    2.6   11.9
I    -2.8    9.7    7.2
H     1.3    3.6  -11.8
P     6.7   -4.2    9.5
H     5.1   10.2   -4.8
I    -9.5    7.8   -1.6
I     5.4   -7.2   -8.5
I   -10.1   -0.7    7.2
H    -8.8   -4.8   -7.4
I    -5.5   -7.2   -8.5
H    -6.5    9.0   -5.7
H     1.3   12.3    1.4
N     1.4  -11.2    5.3
I     8.8   -5.0    7.3
I    -9.4    7.7    2.9
I     1.8  -12.4    0.5
H    -3.1   -1.0  -12.1
I    12.5    0.1   -1.7
N    11.9   -4.2    0.3
H    10.8    4.6    4.5
I     8.0   -1.2    9.7
H    -8.7   -3.9    8.3
H     7.7   -9.9    1.5
