         400
 sphere cut out from bulk 
I     1.2    0.2   -1.3
P    -1.2    2.1   -0.3
I    -1.2   -0.2    2.1
P     1.3   -2.1    1.0
I    -1.1   -3.6   -0.3
I    -3.7    0.2   -1.3
H     1.3    0.1   -3.7
I     1.3    3.7    1.2
P     3.7    2.1   -0.2
I     3.7   -0.2    2.1
P    -3.7   -2.1    1.0
H    -1.3   -0.3    4.6
I    -1.2    3.7   -2.9
N     1.3    0.0   -4.8
H     0.0   -4.5   -2.4
H     0.5   -0.5   -5.1
I     3.7   -3.6   -0.3
H    -2.8    0.7   -4.4
I    -3.7    3.6    1.1
H     0.4    1.9   -5.0
I     1.3   -3.6    3.8
H     2.2   -3.9   -3.2
H     2.1   -0.5   -5.1
C     1.3    1.4   -5.3
H    -0.5    5.1    2.6
H    -1.9    3.6    4.0
N    -1.3   -0.3    5.6
H     2.2    1.9   -5.0
N     0.4   -4.9   -3.3
H     0.0   -4.3   -4.1
I     3.7    3.6   -2.9
H    -0.5    0.2    5.9
H    -2.9   -3.9   -3.5
H     2.4   -1.8    5.3
I    -1.1   -2.4   -5.5
C     1.8   -4.9   -3.3
H    -3.8   -4.5   -2.1
C    -3.6    1.1   -5.0
H    -0.4    4.0    4.8
H    -2.1    0.3    5.9
H    -0.5   -2.2    5.9
I     6.2    0.2   -1.3
I    -3.6   -3.8    3.6
C    -1.3    4.4    4.4
H    -4.6    1.1   -4.4
H     2.2   -5.5   -2.5
P    -6.1    2.1   -0.2
I    -6.1   -0.2    2.1
H     2.5   -0.2    6.0
N    -1.0    5.5    3.4
H     3.1    5.1    2.6
H    -3.4    2.2   -5.2
C    -1.4   -1.7    6.2
P     6.2   -2.1    1.0
C    -3.8   -4.4   -3.2
H    -0.4   -5.5    3.8
H    -2.3   -2.2    5.9
H     1.2    1.4   -6.4
H     2.8    3.9    4.7
H    -0.0    5.9   -3.4
H     0.0   -5.9   -3.4
I     1.2    1.9    6.4
H    -1.9   -5.8    3.1
N     2.8   -1.2    6.1
H     4.4    3.5    3.9
H    -1.9    5.9    3.1
H     4.6   -0.8    5.1
H     5.3    1.1   -4.4
H     2.2    6.2   -2.5
H    -3.0    5.4   -3.4
H    -4.7   -3.9   -3.5
H    -0.5   -6.6    2.6
I     3.8   -2.3   -5.6
I    -6.2   -3.6   -0.3
N    -1.0   -6.2    3.4
H     2.2   -5.4   -4.3
C     3.8    4.3    4.4
I     6.2    3.6    1.1
H    -4.0   -0.6   -6.1
N    -3.8    0.4   -6.2
H    -0.4    6.3    3.8
H    -5.2   -0.8    5.1
H     5.2   -3.9   -3.5
N     3.6    5.4    3.5
H     3.0   -5.5    3.9
H    -2.9    0.5   -6.8
H    -1.9    4.9    5.2
C     4.3   -1.2    6.1
H    -0.0    7.2   -2.4
N     0.3    6.8   -3.3
H     2.5   -1.6    7.0
H    -5.5    3.5    3.9
H    -1.4   -1.6    7.3
I    -3.7    2.0    6.4
I    -6.2    3.6   -2.9
H     3.2   -6.6    2.6
C     1.8    6.8   -3.3
H    -2.9   -6.4   -3.4
N    -3.8   -5.8   -3.7
H    -4.6    5.3   -3.5
H     6.1   -4.5   -2.1
H     3.0    6.2    3.9
H     2.1    6.4   -4.3
N    -3.8    5.9   -3.7
N     3.6   -6.3    3.5
H     4.5   -5.8    3.3
H     4.6   -2.3    6.2
C     6.3    1.1   -5.0
H     4.5    5.9    3.3
I     6.2   -3.8    3.6
C     6.1   -4.4   -3.2
I    -1.2    8.1   -0.3
I     1.3   -8.0    1.2
H    -4.6    0.8   -6.8
H     5.3    5.3   -3.5
H     4.3    4.7    5.3
C    -5.6   -1.2    6.1
H     7.1    0.7   -4.4
H     4.7   -0.6    6.9
H    -3.8   -5.8   -4.8
H    -5.2   -2.3    6.2
H    -3.8    7.2   -2.1
H     5.9   -0.6   -6.1
H    -0.0    7.4   -4.1
H    -3.8    5.9   -4.8
H    -5.4   -5.8    3.3
H     6.5    2.2   -5.2
H    -4.6   -6.4   -3.5
I    -6.1   -2.3   -5.6
I    -1.3    2.1   -8.2
C    -1.3   -7.3    4.4
I    -1.2   -8.0   -2.9
H    -5.4    5.9    3.3
H    -5.2   -0.6    6.9
C    -6.1    4.3    4.4
H     5.3    0.8   -6.8
H     7.0   -3.9   -3.5
N     6.1    0.4   -6.2
I    -8.6    0.2   -1.3
H     2.2    7.8   -3.2
H    -1.8   -6.8    5.2
C    -3.8    7.3   -3.2
H    -6.8    5.1    2.6
I     3.7    8.1   -0.3
P    -8.6   -2.1    1.0
P     8.7    2.1   -0.3
I    -3.6   -8.1    1.1
I     8.7   -0.2    2.1
H     5.3   -6.4   -3.5
H    -5.6    4.7    5.3
N    -6.3    5.4    3.5
H    -0.3   -7.7    4.8
H    -3.0    7.8   -3.5
I     1.3    8.1    3.8
I     6.2    2.0    6.4
H    -1.9   -8.1    4.0
H    -7.7   -3.9   -3.2
N     6.1   -5.8   -3.7
P    -1.2   -3.9   -8.3
N     6.1    5.9   -3.7
I     3.8    2.1   -8.2
H    -7.8   -0.5   -5.1
H    -7.1    3.9    4.7
I     1.3   -5.8   -7.2
H    -7.4   -1.8    5.3
H    -8.6    0.1   -3.7
H     6.9    5.4   -3.4
N    -7.1   -1.2    6.1
H    -7.7    1.9   -5.0
I    -3.7    7.9    3.6
I     1.3    5.9   -7.2
I     1.3   -2.5    9.0
I     3.7   -8.2   -2.9
C     3.8   -7.4    4.4
I    -8.6    3.7    1.2
I     8.7   -3.6   -0.3
H    -7.4   -0.2    6.0
N    -6.3   -6.3    3.5
H     2.9   -7.9    4.7
H     8.0    3.6    4.0
H     6.1    7.2   -2.1
H    -6.9   -5.5    3.9
P    -1.2   -9.6   -0.3
H     6.1   -5.8   -4.8
H     7.7    0.3    5.9
H     8.6   -0.3    4.6
H     7.0    0.5   -6.8
H    -4.7    7.8   -3.5
H     6.1    5.9   -4.8
H    -6.7   -6.6    2.6
P     1.3    9.7    1.0
I    -1.2    5.5    8.1
H    -7.7   -5.5   -2.5
H     4.3   -7.1    5.3
P     1.2    3.5    9.1
N    -8.6    0.0   -4.8
I     8.7    3.7   -2.9
H     7.6   -2.2    5.9
P     3.7   -3.9   -8.3
H     5.1    7.8   -3.5
I    -3.7   -5.8   -7.2
C     6.1    7.3   -3.2
C    -8.0   -4.9   -3.3
H     6.9   -6.4   -3.4
I     1.3   -2.3   -9.7
I    -3.7    5.9   -7.2
I    -8.6   -3.6    3.8
H    -6.9    6.2    3.9
H     4.4   -8.2    3.9
I    -3.7   -2.5    9.1
I    -6.2    8.1   -0.3
H    -7.7    6.2   -2.5
C    -8.6    1.4   -5.3
N     8.6   -0.3    5.6
I    -1.2   -6.3    8.1
I     6.2   -8.1    1.1
P     1.3    3.6   -9.6
H    -7.4   -1.6    7.0
P     3.8   -9.6   -0.2
H    -7.7   -5.4   -4.3
P    -3.7    9.6    1.0
H     8.0   -5.8    3.1
H     8.0    5.9    3.1
I     3.7    5.5    8.1
P    -3.7    3.6    9.1
H    -5.6   -7.1    5.3
I    -6.1    2.1   -8.2
I    -3.7   -2.3   -9.6
C    -6.1   -7.4    4.4
H    -5.4   -8.2    3.9
C     8.6    4.4    4.4
I     8.8   -2.4   -5.5
I    -6.1   -8.2   -2.9
I     6.2    7.9    3.6
C     8.5   -1.7    6.2
H    -9.4   -0.5   -5.1
I    -1.3    2.0   10.5
H     8.0    4.9    5.2
I     3.7   -6.3    8.1
H    -8.6    1.4   -6.4
I    -1.2    9.3   -5.5
H    -7.8    6.4   -4.3
H    -9.5    1.9   -5.0
H     9.4    5.1    2.6
N     8.9    5.5    3.4
I    -8.7    1.9    6.4
P    -3.7    3.7   -9.6
H     0.4   -9.8   -5.0
H     6.9    7.8   -3.5
P    -6.2   -3.9   -8.3
C    -8.1    6.8   -3.3
H     9.4    0.2    5.9
H    -9.9   -4.5   -2.4
H     9.9   -4.5   -2.4
I     6.2   -5.8   -7.2
H    -0.5    9.5    5.9
P    -1.2   -4.0   10.4
H     2.2   -9.8   -5.0
N    -9.5   -4.9   -3.3
I     6.2    5.9   -7.2
I    11.1    0.2   -1.3
I     3.7    2.0   10.5
I   -11.1   -0.2    2.1
P   -11.1    2.1   -0.3
I     6.2   -2.5    9.1
H     8.5   -1.6    7.3
H     9.4   -2.2    5.9
H    -3.4   -9.5   -5.2
N     8.9   -6.2    3.4
P    -6.1   -9.6   -0.2
H     9.5    4.0    4.8
P    11.2   -2.1    1.0
H    -2.3    9.5    5.9
H    -7.7    7.8   -3.2
P     6.2    9.6    1.0
H     2.4    9.9    5.3
P    -1.2    7.9   -8.3
P     6.2    3.6    9.1
H    -9.9   -4.3   -4.1
H     9.9   -4.3   -4.1
H    -7.0   -7.9    4.7
I    -6.2    5.5    8.1
H    10.4   -0.5   -5.1
H    -1.4   -1.4  -11.4
H    10.3    1.9   -5.0
H     9.5   -5.5    3.8
I     3.8    9.4   -5.6
I   -11.0   -3.6   -0.3
I     6.2   -2.3   -9.6
I     1.3  -11.5   -1.3
C     1.3  -10.3   -5.3
P     3.7   -4.0   10.4
H     8.0   -6.8    5.2
H     9.4   -6.6    2.6
I    -1.2   11.5    2.1
I     1.3   -9.8    6.4
I    11.1    3.7    1.2
H    11.2    0.1   -3.7
I    -8.6   -8.0    1.2
N    10.3   -4.9   -3.3
H   -10.4    5.1    2.6
C    -1.4   10.0    6.2
I     8.7    8.1   -0.3
I    -6.2   -6.3    8.1
H     9.4    6.3    3.8
H     9.9    5.9   -3.4
H   -10.4    0.2    5.9
H    -9.9   -5.9   -3.4
H     9.9   -5.9   -3.4
H    -9.9    5.9   -3.4
H   -10.3    4.0    4.8
P     3.7    7.9   -8.3
H     2.5   -1.4  -11.7
I     1.2   11.9   -1.3
H     8.0   -8.1    4.0
P     6.2    3.7   -9.6
I   -11.1    3.7   -2.9
I    -1.2    5.6  -10.6
H   -11.2   -0.3    4.6
C     8.6   -7.3    4.4
I     8.6    2.1   -8.2
H   -10.4   -2.2    5.9
I    -1.2  -11.9    2.1
I    -3.7   -9.7    6.4
N    11.2    0.0   -4.8
H     4.6    9.4    6.2
I     8.7   -8.0   -2.9
I    -3.6  -11.6   -1.3
H    -2.8  -11.0   -4.4
N    -9.6    6.8   -3.3
C    -3.6  -10.6   -5.0
H    -2.9    0.3   11.9
H     1.3  -10.4   -6.4
H   -10.3   -5.5    3.8
H     0.4   11.2   -5.1
I     3.7   11.5    2.1
I    -6.2    2.0   10.5
H     1.3  -11.7   -3.7
I    -1.2   -6.1  -10.6
H    -1.3   11.4    4.6
I    11.2   -3.6    3.8
P     1.3   -8.3    9.1
H    -4.5  -10.6   -4.4
H     1.2    1.2   12.3
H     1.3   11.8   -3.7
H    -5.3    9.4    6.2
C    11.2    1.4   -5.3
H     9.9    7.2   -2.4
N     2.8   10.5    6.1
I    -8.6    8.1    3.8
H    -9.9    7.2   -2.4
H     2.1   11.2   -5.1
I    -3.7   11.9   -1.3
I     1.2    2.1  -12.3
N   -11.2   -0.3    5.6
I    -6.1    9.4   -5.6
H     2.4   10.1    7.0
I   -11.0   -2.4   -5.5
H    -1.4   10.1    7.3
I     3.7    5.6  -10.6
P     1.3   -8.1   -9.6
H   -10.4   -6.6    2.6
I    -8.6   -5.8   -7.2
C    -1.4   -1.5  -12.5
H     6.5   -9.5   -5.2
H   -10.3    6.3    3.8
P     8.7   -3.9   -8.3
I     3.8  -11.9    2.1
N   -10.9    5.5    3.4
N     1.3  -11.7   -4.8
H     5.3  -10.6   -4.4
I    -1.2   -9.6   -8.2
I    -8.6   -2.5    9.0
I    -8.6    5.9   -7.2
H     4.7   -0.5  -11.8
P    -6.2   -4.0   10.4
N    10.2    6.8   -3.3
P    -3.7   -8.2    9.1
H    -4.6    0.6   11.9
N     1.3   11.8   -4.8
H    -0.5    0.4  -12.8
N    -1.4   11.4    5.6
I     3.7   -6.1  -10.6
C     4.3   10.5    6.1
C   -11.2    4.4    4.4
H     4.6   10.9    5.1
H    -5.2   -0.5  -11.8
I     1.2    5.8   11.5
H    11.1    1.4   -6.4
H    -0.5  -11.5    5.9
H     2.5   -0.1  -12.7
I     1.2    9.2    9.0
P     8.7   -9.6   -0.3
H    -0.5   -2.1  -12.8
N     2.8   -1.1  -12.6
H    -1.3  -12.1    4.6
H   -11.8    3.6    4.0
I    11.1    1.9    6.4
C   -11.3   -1.7    6.2
H    -2.1    0.4  -12.8
