         400
 sphere cut out from bulk 
H     0.3    0.3   -0.8
C     0.4    1.4   -0.9
H    -0.4    1.8    1.0
N    -0.6    2.1    0.0
H     1.4    1.7   -0.5
H    -1.5    1.8   -0.2
H     0.2    1.7   -1.9
H    -0.5    3.1   -0.0
I    -1.7   -2.4   -1.0
I    -0.5    0.3    3.2
H    -0.6   -3.0    1.4
H    -0.2   -2.2    2.7
I     2.6   -2.4   -0.1
N    -0.5   -3.1    2.4
I     1.6   -0.5   -3.8
H    -3.0   -0.1    2.8
H     2.8    0.0    3.1
I    -4.0    1.4   -0.6
H    -4.2   -0.0    1.5
P     0.8   -3.7   -2.5
H    -1.4   -3.4    2.8
H     1.5   -3.8    2.3
N    -4.0   -0.3    2.5
H     4.7   -0.0    1.5
C     0.6   -4.1    2.7
H    -4.1   -1.4    2.6
I     4.8    1.4   -0.6
P    -4.3   -1.1   -2.4
C     3.8    0.3    3.4
I     1.7    4.2    2.7
P     4.5   -1.1   -2.4
H     4.0    1.4    3.4
N     4.8   -0.3    2.5
I    -0.9    5.4   -1.1
H     4.7   -1.4    2.6
H     0.3   -5.1    2.3
H     0.7   -4.2    3.8
P    -0.2    2.9    5.0
H    -4.3    3.9   -0.2
I    -2.9   -0.5   -5.1
H     4.5    3.9   -0.2
H     4.0   -0.0    4.5
H    -3.2    5.1   -0.2
C    -5.0    0.3    3.4
H    -4.9    1.4    3.4
H    -3.7   -4.9    0.3
H     2.7    5.5    0.3
I    -2.8    4.2    3.6
H    -4.0    4.8    1.2
I    -3.7   -3.6    3.6
N    -4.1    4.9    0.2
H     5.8   -0.1    2.8
I     0.3   -6.4   -1.1
H    -4.8   -0.0    4.5
P     0.1   -0.9   -6.5
I    -0.7   -4.1   -5.2
I    -6.2   -2.4   -0.1
H    -6.0    0.0    3.1
I     3.8   -4.1   -3.9
N     4.7    4.9    0.2
H    -2.0   -6.6   -0.2
H     4.9    4.8    1.2
C     3.7    5.9   -0.2
H     3.6    5.9   -1.2
H    -0.9    6.6    2.3
C    -4.0   -5.9   -0.2
H     5.1   -4.9    0.3
H    -4.0   -5.8   -1.2
I     2.7    2.3    6.3
I     5.1   -3.6    3.6
H     3.9   -6.2    0.3
N    -2.9   -6.9    0.2
H     7.3    1.8   -0.2
I     7.1   -2.4   -1.0
I    -5.1   -4.1   -3.9
H    -2.8   -7.0    1.2
H    -7.4    1.7   -0.5
C     4.9   -5.9   -0.2
H     4.8   -5.8   -1.2
H     5.7    5.1   -0.2
C    -5.2    5.9   -0.2
I     6.0   -0.5   -5.1
H     4.0    6.8    0.3
H    -4.9   -6.2    0.3
H    -5.2    5.9   -1.2
C    -0.6    7.6    2.7
I     0.6    1.7   -7.9
I     6.0    4.2    3.6
P     3.5    5.4    5.1
I    -7.3   -0.5   -3.8
I    -1.7    2.2    7.7
H    -6.1    5.5    0.3
H     0.4    7.9    2.3
P    -3.6   -3.5   -6.6
H    -4.9    6.8    0.3
H    -3.1   -7.8   -0.2
P    -0.4    8.0   -2.5
H    -0.5    7.5    3.8
H    -7.3   -3.8    2.3
N     8.3    2.1    0.0
I     2.9   -7.6    2.7
I    -1.6   -7.6    3.6
C    -8.4    1.4   -0.9
H    -8.5    0.3   -0.8
H     7.5   -3.4    2.8
H     0.7   -8.6   -0.0
I     2.7   -2.2   -8.0
H     8.4    1.8    1.0
I     0.5    5.9    6.4
I    -7.2    4.2    2.7
H    -3.9    1.2   -7.8
I     1.7   -5.9    6.4
H     8.2   -3.0    1.4
I     8.3    0.3    3.2
I     2.6    7.6   -3.9
H    -0.5    5.4   -7.1
H     8.4    3.1   -0.0
H    -8.6    1.7   -1.9
H    -1.8    8.7    1.4
N     5.9   -6.9    0.2
N    -1.7    8.6    2.4
I    -6.1    2.3    6.3
P    -4.2   -6.3    5.1
P     5.2   -3.5   -6.6
H     9.1    0.3   -0.8
H    -2.6    8.3    2.8
P    -5.4    5.4    5.1
P    -8.0   -3.7   -2.5
N     8.4   -3.1    2.4
H     5.0    1.2   -7.8
H     8.6   -2.2    2.7
I    -1.7   -2.2   -8.9
H     6.1   -7.0    1.2
P     4.7   -6.3    5.1
C     9.3    1.4   -0.9
H     9.1    1.7   -1.9
I     1.4    9.3   -0.1
H     2.9    2.0   -8.8
I    -1.8    7.7   -5.2
H    -9.2    1.8    1.0
H     6.8   -6.6   -0.2
H     0.7   -6.4   -7.1
C    -8.2   -4.1    2.7
H     0.6   -5.0   -8.2
N    -9.4    2.1    0.0
H     5.7   -7.8   -0.2
I     8.0    5.4   -1.1
N     0.6   -9.7    0.0
I     3.9    8.1    3.6
H    -9.1   -2.2    2.7
C    -4.0    1.2   -8.8
H    -9.3    3.1   -0.0
H     0.2    4.0   -9.0
I    -2.9    9.3   -1.0
H    -3.0    1.6   -9.3
I    -9.4    0.3    3.2
H    -0.3   -9.9   -0.2
H    -8.2   -4.2    3.8
C    -0.7    5.7   -8.1
H    -9.4   -3.0    1.4
I    -6.0   -7.6    2.7
H    -1.4    9.6    2.7
H     0.8  -10.0    1.0
N    -9.3   -3.1    2.4
I    -4.9    8.1    3.6
C     0.5   -6.0   -8.1
I    -2.7   -5.9    7.8
C     4.9    1.2   -8.8
H    -1.7    5.4   -8.4
H    -8.5   -5.1    2.3
H    -4.2    0.3   -9.3
N     3.8    2.2   -9.2
H     4.0    3.2   -8.8
P     0.9   -8.9    5.0
H     1.4  -10.0   -1.9
H     1.2    5.3   -8.8
I    -6.2   -2.2   -8.0
P     4.2    2.7    9.1
P     8.6    2.9    5.0
H     4.6    0.3   -9.3
N     0.3    5.0   -9.0
H    -0.7    0.6   10.3
H     2.6  -10.0   -0.5
H    10.3    1.7   -0.5
C     1.6  -10.3   -0.9
I    -3.9    5.8    7.8
H   -10.4    1.8   -0.2
P    -4.7    2.7    9.1
I     8.2   -4.1   -5.2
H    -4.8    3.2   -8.8
H    -0.5   -6.3   -8.4
H     1.5   -1.6  -10.3
I    -6.3    7.6   -3.9
P    -1.0    5.2    9.2
H     8.0    6.6    2.3
P     9.6   -3.7   -2.5
C     9.4   -4.1    2.7
I    -8.5   -6.4   -1.1
H    -0.6    6.8   -8.2
I    -2.8  -10.3   -0.6
N    -5.0    2.2   -9.2
H     9.2   -5.1    2.3
I     7.1    2.2    7.7
P    -9.1    2.9    5.0
I     3.8    5.7   -8.3
H    -5.9    2.0   -8.8
H     6.3    8.3    2.8
I   -10.6   -2.4   -1.0
I     4.9    5.8    7.8
P    -8.7   -0.9   -6.5
I    -3.9   -6.1   -8.3
H     5.8    1.6   -9.3
I     7.2   -7.6    3.6
I    10.4   -0.5   -3.8
H     9.5   -4.2    3.8
I     5.9    9.3   -1.0
P     8.9   -0.9   -6.5
H    -4.1   -3.6    9.7
H     3.7    2.3  -10.2
H   -10.2   -3.4    2.8
I    -9.7    5.4   -1.1
I     3.7    0.0   10.5
H     2.4   -6.5   -8.8
I     9.2   -6.4   -1.1
P     0.2   -6.5    9.2
H     3.5   10.4    2.6
I    -7.1   -5.9    6.4
H     7.1    8.7    1.4
P     4.0    8.2   -6.6
H    10.4   -3.8    2.3
I    -5.1    5.7   -8.3
H     0.6    0.5  -11.3
H    -0.6   -0.8  -11.3
N     1.5   -6.7   -9.0
I     1.6    3.9   10.5
H     0.1    5.3  -10.0
P     3.3   10.6   -2.4
H     4.8   -3.6    9.7
H     1.4   -0.2   11.3
C    -0.6    0.5   11.4
I     4.9   -6.1   -8.3
N     7.2    8.6    2.4
H    -3.7  -10.3    3.4
H     0.2   -1.4   11.4
H     1.5  -11.4   -0.8
C     8.2    7.6    2.7
I     6.1   -5.9    7.8
N     1.4   -1.5  -11.4
I    -9.5   -4.1   -5.2
P    -4.8    8.2   -6.6
I    -8.3    1.7   -7.9
I     7.1   -2.2   -8.9
I     7.0    7.7   -5.2
I    10.5    4.2    2.7
I     0.5   -3.9   10.9
H    -5.1    2.3  -10.2
I    -5.1    0.0   10.5
I    11.4   -2.4   -0.1
C     0.3   -0.5  -11.7
N     0.5   -0.5   11.8
I     0.4   11.2   -3.8
H    -6.2  -10.0   -0.5
H    -8.1   -8.6   -0.0
H    -8.5    7.9    2.3
H     8.3    7.5    3.8
I     0.7  -11.4    3.2
I    -7.4    9.3   -0.1
H     1.4   -7.7   -9.0
I     6.0  -10.3   -0.6
H    -5.3   10.4    2.6
P     8.5    8.0   -2.5
H    -0.3    1.5   11.8
H    -1.6    0.2   11.8
H    -2.8   -3.7   11.0
H     1.3   -6.4  -10.0
H    -9.7    6.6    2.3
H     5.2  -10.3    3.4
I     3.9   -9.5    6.3
H     1.1   -2.4  -11.7
I    -8.3    5.9    6.4
C    -3.9   -4.0   10.7
H     2.3   -1.2  -11.8
H    11.7    0.0    3.1
H    -3.8   -4.6  -10.5
H    -0.9   12.1   -0.8
H   -11.9   -0.1    2.8
H     8.3    5.4   -7.1
P    -5.5   10.6   -2.4
I    -1.9    3.0  -11.7
N     3.6   11.4    2.5
I    -0.5   -9.5    7.7
H    -3.0  -11.8    1.5
H     3.0   -3.5   11.3
H     1.6   11.8    3.1
H    -1.8  -11.8    2.8
H     3.5   11.7    1.5
H     7.1    5.4   -8.4
H     9.2    7.9    2.3
H     7.4    9.6    2.7
I    -4.9   -9.5    6.3
C    -9.4    7.6    2.7
I    -2.9    4.0   11.4
I     9.4    1.7   -7.9
H     4.1   -2.3   11.5
C     5.0   -4.0   10.7
P    -9.2    8.0   -2.5
I     1.5    9.5   -8.0
C    -3.8  -11.4    3.4
H     5.1   -4.6  -10.5
H    -4.0   -5.0   10.8
H    -8.2   -6.4   -7.1
I    -1.7   12.0    3.2
H    -7.4  -10.0   -1.9
H    -9.4    7.5    3.8
H    -8.2   -5.0   -8.2
H    -3.8   -3.3  -11.6
C    -7.2  -10.3   -0.9
H    -6.4   -6.5   -8.8
N    -2.8  -12.1    2.5
P    -1.1   10.8   -6.5
N    -8.2   -9.7    0.0
H    -4.7   -2.3   11.5
H   -10.8   -6.6   -0.2
H    -4.2   11.6    2.8
N     4.0   -3.3   11.6
H    -7.6    5.3   -8.8
H     4.0  -11.7    3.1
I     9.3    5.9    6.4
H    -7.3   -1.6  -10.3
I   -11.7   -0.5   -5.1
N    -5.2   11.4    2.5
H    -3.6   -8.5   -8.8
H     0.6   -0.6   12.8
H     0.2   -0.4  -12.8
H    11.6    5.5    0.3
C     2.7   12.1    3.4
H     4.6   11.6    2.8
C     8.1    5.7   -8.1
H    -8.0  -10.0    1.0
H     4.8   -5.0   10.8
H     2.9   11.7    4.5
P    -7.9   -8.9    5.0
H     9.6   -8.6   -0.0
I     1.8  -10.0   -7.9
I   -11.7    4.2    3.6
N    -3.9   -4.3  -11.5
H    -9.3    5.4   -7.1
C     5.0  -11.4    3.4
H    -5.4   11.7    1.5
I   -12.9    1.4   -0.6
I    -4.1   11.2   -5.1
N    -4.8   -3.3   11.6
H    -4.8  -11.7    3.1
H     5.0   -3.3  -11.6
H     8.5   -9.9   -0.2
H    -3.6  -11.7    4.5
H     6.0   -3.7   11.0
H   -12.0    5.1   -0.2
H   -13.0   -0.0    1.5
H    -8.7    4.0   -9.0
N   -12.8   -0.3    2.5
H    -1.9   -4.7  -12.1
C    -8.4   -6.0   -8.1
I     2.8  -12.3   -3.8
H     3.6    8.1    9.7
C    12.7    0.3    3.4
H     8.2    0.6   10.3
P     7.9    5.2    9.2
I     2.5    3.0  -12.6
C    -0.8   13.1   -0.9
H     3.7    6.7   10.8
H    -5.8   -3.5   11.3
H     3.9   -4.5  -11.8
N     4.9   -4.3  -11.5
I     1.4   -4.9  -12.2
H     5.9  -11.8    1.5
I     4.8   11.2   -5.1
I   -10.5    2.2    7.7
H   -12.9   -1.4    2.6
P    -3.5   -9.1    9.1
H     3.9    7.2  -10.5
H    12.8    1.4    3.4
I    -2.9    9.5   -8.9
H     9.0    4.0   -9.0
I    -4.2   -1.0  -12.6
I    -7.2    3.9   10.5
H     5.2   -8.5   -8.8
I    11.5    2.3    6.3
I    -1.7  -12.2   -5.1
H    -2.7  -10.6   -7.8
I     2.8   -7.8   10.5
I   -10.5   -7.6    3.6
P   -13.2   -1.1   -2.4
H     8.3   -6.3   -8.4
N    -8.6    5.0   -9.0
I    -0.7    7.8   10.9
H     0.2   13.4   -0.5
P    -3.1  -12.9   -2.4
H   -12.5   -4.9    0.3
N    -7.4   -6.7   -9.0
