         400
 sphere cut out from bulk 
H     1.7   -0.3   -1.0
H    -0.4    0.2   -2.3
I    -0.7    2.4    0.6
I    -1.4   -2.1    0.6
N     1.7   -0.3   -2.1
C     0.6    0.6   -2.6
H     0.8    1.6   -2.3
H     1.6   -1.2   -2.4
H     0.6    1.4    2.8
H     1.9    0.3    2.9
P    -3.3    0.6    0.9
I     3.0   -1.3    1.2
H     2.6    0.1   -2.4
N     1.4    1.1    3.4
H     0.7    0.6   -3.7
P     1.2   -4.0    0.9
H     2.0    1.9    3.4
I    -3.8    0.7   -2.3
H     0.3   -0.2    4.6
I     1.6   -3.8   -2.3
C     0.9    0.6    4.7
H    -2.7   -3.2    2.6
H    -2.8   -3.9   -1.3
I    -2.9    0.4    4.0
H    -3.0   -2.9   -2.8
I     3.8    3.2    1.3
P     1.2    5.1    0.9
C    -2.8   -3.9   -2.4
H     0.4    1.4    5.2
H    -1.8   -4.3   -2.8
H     1.8    0.4    5.3
I    -1.2   -1.8   -5.2
H    -3.8    3.3   -2.5
I     5.1    0.7   -2.3
P     5.7    0.6    0.9
I     0.6   -4.1    4.0
H    -1.9    4.8   -2.8
N    -2.9   -4.0    3.3
I     1.6    5.2   -2.3
I    -1.0    2.8   -5.2
H    -2.0   -4.4    3.6
H    -2.8    5.1   -1.3
I    -5.1    3.2    1.3
I    -6.0   -1.3    1.2
H    -3.4    4.4    2.8
H    -2.0    4.7    3.6
C    -2.8    5.2   -2.4
H    -3.0   -2.7    5.0
I     0.6    4.9    4.0
H    -3.4   -4.7    2.8
N    -3.9    4.3   -2.9
H     4.1   -4.4   -2.5
P    -3.3    0.6   -5.6
H     5.1    3.3   -2.5
H     4.1    4.6   -2.5
I    -0.6   -6.6    0.6
H     4.3   -3.0    4.1
C    -3.6   -3.4    4.5
N    -2.9    5.1    3.3
H    -6.3    0.1   -2.4
I     3.2   -1.5   -5.8
N    -3.9   -4.8   -2.9
H    -4.6   -3.0    4.1
P     1.1   -3.9   -5.6
H    -2.7    5.8    2.6
H    -3.9    4.2   -3.9
H    -4.8   -4.4   -2.5
I     3.8   -5.8    1.3
I    -1.5    7.0    0.6
H    -4.8    4.6   -2.5
H     5.9   -2.9   -2.8
N     5.0    4.3   -2.9
I     6.0    0.4    4.0
H    -7.2   -0.3   -1.0
H    -3.8   -5.7   -2.5
H    -3.9   -4.8   -3.9
H    -3.0    6.2   -2.8
H     6.1   -3.9   -1.3
I     3.5    3.0   -5.9
N     5.0   -4.8   -2.9
H     6.3   -3.2    2.6
N    -7.2   -0.3   -2.1
H     5.5    4.4    2.8
H     5.0    4.2   -3.9
H    -7.1    0.3    2.9
C     6.1   -3.9   -2.4
P     1.1    5.1   -5.6
H    -3.8   -4.2    5.2
H     1.8    0.4   -7.5
C     5.3   -3.4    4.5
H     5.5   -4.7    2.8
H     0.4    1.5   -7.6
H     0.8   -7.4   -2.3
I     7.5   -2.1    0.6
H    -7.3   -1.2   -2.4
I     3.2   -1.6    7.0
I    -5.1   -5.8    1.3
I    -1.3   -1.8    7.6
H    -6.9    1.9    3.4
P     5.6    0.6   -5.6
P    -3.4    0.5    7.2
N     6.0   -4.0    3.3
H     5.0   -4.8   -3.9
H    -3.8    4.8    5.2
C    -3.6    5.6    4.5
H     6.1    5.1   -1.3
H     5.1   -5.7   -2.5
I    -1.1    2.7    7.6
H     5.9   -2.7    5.0
C     0.9    0.7   -8.1
H     0.6   -7.7    2.8
H     0.3   -0.2   -8.2
H     2.0   -7.2    3.4
I    -1.0   -6.3   -5.2
I     3.4    2.9    6.9
I    -5.7   -1.5   -5.8
P     1.0   -4.0    7.2
H     1.6    7.8   -2.4
N    -7.6    1.1    3.4
C     6.1    5.2   -2.4
I     2.9    7.8    1.2
H     5.1   -4.2    5.2
H     4.3    6.0    4.1
I    -7.3   -3.8   -2.3
N     6.0    5.1    3.3
I    -5.4    3.0   -5.9
H    -8.2    1.6   -2.3
I     8.3    2.4    0.6
H    -4.6    6.0    4.1
H    -3.0    6.4    5.0
H     5.1    4.8    5.2
H     7.1   -4.3   -2.8
P    -7.7   -4.0    0.9
C    -8.3    0.6   -2.6
N     1.4   -8.0    3.4
H    -3.0   -2.6   -7.8
C     0.6   -8.4   -2.6
P     1.0    5.1    7.2
H     8.6    0.2   -2.3
H    -7.1    0.4    5.3
H    -8.4    1.4    2.8
C     5.3    5.6    4.5
H     6.3    5.8    2.6
H     7.1    4.8   -2.8
H     7.0   -4.4    3.6
H     1.7    8.8   -1.0
H     5.9    6.2   -2.8
I    -1.3    7.3   -5.2
P     5.5    0.5    7.2
H    -8.3    0.6   -3.7
H    -0.3   -8.8   -2.3
H     0.6    0.5    9.1
H     6.9    4.7    3.6
I     3.5   -6.0   -5.9
P    -3.2   -8.5    0.9
N     1.7    8.8   -2.1
I    -5.8   -1.6    7.0
H     0.4   -7.6    5.2
I    -2.8    0.5   -8.8
I    -7.3    5.2   -2.3
H     0.7   -8.5   -3.7
I    -5.5    2.9    6.9
P    -7.7    5.1    0.9
C    -8.0    0.6    4.7
H     1.9   -8.7    2.9
I    -3.8   -8.3   -2.3
I     7.7   -1.8   -5.2
H    -3.8   -4.2   -7.6
H     1.7   -9.3   -1.0
H    -9.3    0.2   -2.3
H    -0.4    9.3   -2.3
N     1.4    1.1   -9.4
H     2.6   -9.0   -2.4
C    -3.6   -3.4   -8.3
N     1.7   -9.3   -2.1
I     0.7   -4.1   -8.8
C     0.9   -8.4    4.7
H     2.1    1.9   -9.3
H     2.6    9.1   -2.4
H    -8.7   -0.2    4.6
H    -3.8    4.9   -7.6
I     7.9    2.8   -5.2
I     3.5   -6.1    6.9
I    -6.0    7.8    1.2
C     9.5    0.6   -2.6
I    -9.6    2.4    0.6
H     0.2    8.8    4.6
I    -2.9   -8.6    4.0
H     1.8    9.3    2.9
I    -1.1   -6.3    7.6
H     9.5    1.4    2.8
H     5.9    6.4    5.0
I     3.2    7.5   -5.8
I     5.1   -8.3   -2.3
C     0.6    9.7   -2.6
I    -5.4   -6.0   -5.9
H     9.7    1.6   -2.3
I    -8.3   -4.1    4.0
H     5.1   -4.2   -7.6
H    -8.5    1.4    5.2
I     0.6    5.0   -8.8
H     1.9    0.4   -9.9
H     0.6    1.4  -10.0
H     4.4   -2.9   -8.7
H     5.9   -2.6   -7.8
P    -3.3    9.6    0.9
C     0.6    0.6   10.2
H    -4.5   -2.9   -8.7
I     7.5    7.0    0.6
P     5.7   -8.5    0.9
H     9.2   -0.2    4.6
H     9.6    0.6   -3.7
H    -1.9   -4.3   -9.2
H    -7.1    0.4   -7.5
H     1.8   -8.7    5.3
H     0.6    9.6   -3.7
H     0.3   -9.3    4.6
H     5.1    4.9   -7.6
P    -7.8   -3.9   -5.6
C     5.3   -3.4   -8.3
I    -8.3    4.9    4.0
H    -1.9    4.8   -9.2
H    -6.9   -7.2    3.4
H    -0.4    0.2   10.5
I    -1.3    7.2    7.6
H    -3.0    6.4   -7.8
H     1.5   -1.3   10.4
I   -10.4   -2.1    0.6
H    -4.0    4.2    8.9
I     8.3   -6.6    0.6
N    -2.8   -3.9   -9.5
H    10.6   -0.3   -1.0
I     6.1    0.5   -8.8
H     0.7    1.6   10.5
H     1.6  -10.3   -2.4
I    -2.9    9.5    4.0
I     3.2    7.4    7.0
P    -3.3   -8.5   -5.6
C    -3.6    5.7   -8.3
I    -5.5   -6.1    6.9
H     0.4   -7.5   -7.6
H     2.6    0.0   10.4
N     1.4   10.1    3.4
H     9.3    1.4    5.2
I    -3.8    9.8   -2.3
H     0.6   10.4    2.8
C     0.9    9.7    4.7
I     3.0  -10.3    1.2
N    10.6   -0.3   -2.1
H    10.5   -1.2   -2.4
N     1.7   -0.3   10.7
H    -3.0   -2.9   10.0
N    10.3    1.1    3.4
H    -4.0   -4.9    8.9
P    10.1   -4.0    0.9
P    -7.9    5.1   -5.6
C     9.8    0.6    4.7
I     7.7   -1.8    7.6
H     0.8   10.7   -2.3
H     1.8    9.4    5.3
H    -2.6   -3.2  -10.2
H     4.9    4.2    8.9
H    -7.4    7.8   -2.4
H    -1.9   -4.3   10.0
I    -5.7    7.5   -5.8
I     9.5   -4.1    4.0
H    10.8    0.3    2.9
N    -2.9    5.1   -9.5
P     5.6    9.6    0.9
I    -3.9    0.7   10.5
H    -1.9    4.7   10.0
H    -6.3   -9.0   -2.4
I    -1.4  -11.1    0.6
H    -8.1   -7.4   -2.3
I     7.8    2.7    7.6
I     5.1    9.8   -2.3
I     6.1   -8.6    4.0
H     5.0   -4.9    8.9
I     1.6   -3.9   10.5
H    -6.3    9.1   -2.4
P    10.1    5.1    0.9
I     7.9   -6.3   -5.2
C    -8.0    0.7   -8.1
C     5.3    5.7   -8.3
P    -7.9   -4.0    7.2
H    -3.8    3.2   10.3
H    -7.2    8.8   -1.0
H    -3.4    4.4  -10.0
I     9.5    4.9    4.0
C    -2.8   -3.9   10.4
H     4.4    6.1   -8.7
I    10.6   -3.8   -2.3
N    -3.9    4.2    9.9
N    -7.5   -8.0    3.4
I    -0.7   11.5    0.6
H    -8.5    1.5   -7.6
H    -3.4   -4.6  -10.0
I   -10.2   -1.8   -5.2
H    -4.6    6.1   -8.7
H     1.8   -8.6   -7.5
I   -10.0    2.8   -5.2
N    -7.3    8.8   -2.1
H    -7.0   -8.7    2.9
P     5.6   -8.5   -5.6
H     2.0   10.9    3.4
H    10.9    1.9    3.4
P    -3.4    9.6   -5.6
P    -3.4   -8.5    7.2
I    -9.6   -6.6    0.6
I     5.1    0.7   10.5
C     1.0   -8.4   -8.1
H    -8.3   -7.7    2.8
H     0.4   10.5    5.2
N    -3.9   -4.8    9.9
I    -5.8    7.4    7.0
H     5.9    6.4   -7.8
H    -6.9    1.9   -9.3
I     7.7    7.3   -5.2
I     1.6    5.1   10.5
H    11.6    0.1   -2.4
P    -7.9    5.1    7.2
H    -7.2   -9.3   -1.0
H     1.7   -0.3   11.7
N     5.0    4.2    9.9
H    -8.6   -0.2   -8.2
H     4.1   -4.5   10.2
H     5.1    3.2   10.3
C    -2.8    5.1   10.4
H     4.0    4.5   10.2
N     6.1   -3.9   -9.5
H   -10.8   -4.3   -2.8
I     6.0    9.5    4.0
H     2.1   -7.1   -9.3
N    -7.2   -9.3   -2.1
H    10.7    0.4    5.3
I    -5.9  -10.3    1.2
I    10.5    5.2   -2.3
H     5.9   -2.9   10.0
I    11.9   -1.3    1.2
H    -2.6    5.9  -10.2
I     3.0   -1.2  -11.6
H     0.3    8.9   -8.2
H    -7.1    9.3    2.9
I    -1.2  -10.8   -5.2
N    -7.5    1.1   -9.4
H    -3.0    6.1   10.0
N     5.0   -4.8    9.9
C    -8.3   -8.4   -2.6
P    10.0   -3.9   -5.6
H   -10.8    4.8   -2.8
H     9.3    1.5   -7.6
H    -7.0    0.4   -9.9
H    -6.3    0.0   10.4
H     1.8    9.5   -7.5
H    -4.9   -4.5   10.2
H    -4.9    4.5   10.2
P   -12.2    0.6    0.9
H     5.5    4.4  -10.0
H   -10.9   -4.4    3.6
H   -11.6   -3.2    2.6
H    -8.3    0.5    9.1
H     7.0   -4.3   -9.2
H     5.5   -4.6  -10.0
H     9.2   -0.2   -8.2
H     0.3   -9.2   -8.2
P    -3.2    0.6  -11.9
H     6.3   -3.2  -10.2
N     6.1    5.1   -9.5
H    -8.3   -8.5   -3.7
H    -3.8   -5.8   10.3
N     1.4   -7.9   -9.4
H   -10.9    4.7    3.6
H   -11.7   -3.9   -1.3
H     9.7   -7.4   -2.3
H    -7.1   -8.7    5.3
P    -3.4    9.6    7.2
I    -0.6    2.5  -12.2
P     5.6    9.6   -5.6
P     5.6   -8.5    7.2
I    -1.4   -2.0  -12.2
H    -2.8   -4.0   11.5
H     0.6   -8.5    9.1
H     7.0    4.8   -9.2
I   -11.8    0.4    4.0
I     3.2  -10.6   -5.8
H     8.6   -8.8   -2.3
I   -10.4    7.0    0.6
P    10.0    5.1   -5.6
C    -8.0   -8.4    4.7
H     9.5   -7.7    2.8
I     3.8    3.3  -11.5
H   -11.9   -2.9   -2.8
H    -8.5   -7.6    5.2
C   -11.7   -3.9   -2.4
I    -2.8   -8.6   -8.8
H    -3.0  -11.9   -2.8
H     0.6   -7.6  -10.0
P     1.2   -3.9  -11.9
I     7.9   -6.3    7.6
C     0.9    9.7   -8.1
