         400
 sphere cut out from bulk 
H     0.3    0.7    1.9
I     1.8   -1.1    0.6
H    -0.1    2.7    0.5
N    -0.1    1.5    2.3
H     1.0   -1.5   -2.3
H    -1.2    1.5    2.3
I    -1.9    1.7   -1.9
C     0.3    2.7    1.6
H    -1.0   -0.4   -3.1
I    -2.6   -1.8    0.9
H     1.4    2.8    1.6
H     0.2    1.6    3.3
C     0.4   -2.0   -3.0
H    -0.3   -2.7   -2.5
N    -0.4   -1.0   -3.7
P    -0.1   -3.4    1.9
H    -0.1    3.6    2.1
I     2.7    2.5   -2.2
H     0.2   -0.3   -4.2
P     4.4    0.2   -0.6
P    -4.5    0.2   -0.6
H     1.0   -2.5   -3.7
H    -1.0   -1.4   -4.5
I     0.0   -1.7    4.6
H     3.2   -0.6    4.0
I    -4.2    2.2    1.8
P     0.0    3.9   -3.3
I    -0.2   -5.3   -0.7
I     4.7    2.2    1.8
H    -4.3   -1.4    3.2
I     4.3   -1.6   -3.3
H     3.3   -2.4    3.9
C     3.9   -1.5    4.0
H     4.6   -1.4    3.2
I    -0.2    5.8   -0.7
I    -4.6   -1.6   -3.3
H    -4.0    4.4    0.3
H    -2.8    5.2   -0.6
H     3.2   -5.1   -0.4
I     1.7    2.3    5.4
I     0.1    2.0   -5.8
H    -4.4   -4.3    0.5
H    -4.1    4.5   -1.4
H     4.4   -4.2   -1.3
H    -4.5   -4.2   -1.3
H     4.5   -4.3    0.5
H     3.9    2.2   -4.4
N    -3.8    5.0   -0.6
I     2.5   -5.0    2.9
H    -3.6    1.4   -5.1
C     4.2   -4.8   -0.4
H    -2.8   -5.8   -0.6
C    -5.0   -1.5    4.0
H     4.9    4.4    0.3
I     6.3   -1.8    0.9
H    -3.8   -0.5    5.4
H     4.8    4.5   -1.4
C    -4.7   -4.8   -0.4
H     3.2    5.9   -0.4
I    -2.7    1.7    6.0
I    -1.9   -5.5    3.6
H    -3.6   -2.2    5.4
I    -1.9    5.6    3.6
H    -5.0    2.2   -4.4
N    -4.3   -1.4    5.3
H    -5.7   -0.6    4.0
H    -3.8    3.1   -5.0
N    -4.3    2.2   -5.2
I    -6.2    2.5   -2.2
I     2.5    6.0    2.9
N     5.1    5.0   -0.6
N     4.6   -1.4    5.3
P    -0.0    0.3    7.2
N    -3.8   -6.1   -0.6
H    -5.6   -2.4    3.9
I    -7.1   -1.1    0.6
N     4.6    2.2   -5.2
I    -1.9   -1.8   -6.8
H     0.2   -4.0    6.2
I     1.8   -5.1   -5.0
H     3.9   -1.5    6.1
I    -2.7    5.3   -4.4
P     4.4    3.9    4.6
H     5.3    1.4   -5.1
H     3.4    1.2   -6.5
H     5.1   -0.5    5.4
I     7.0    1.7   -1.9
C     4.2    6.2   -0.4
P    -4.5    3.9    4.6
H    -5.7   -5.1   -0.4
H    -0.1   -7.4    2.1
I    -2.7   -5.7   -4.4
H    -4.0   -6.7    0.3
C    -4.7    6.2   -0.4
P     0.0   -7.1   -3.3
H     5.1    3.1   -5.0
H     5.3   -2.2    5.4
P    -0.1    7.6    1.9
H     3.2    3.0   -6.5
C     3.9    2.2   -6.5
H    -4.1   -6.6   -1.4
H    -1.0   -5.1    6.0
N     5.1   -6.1   -0.6
I     1.7    5.9   -5.0
H    -5.0   -1.5    6.1
H     6.1    5.2   -0.6
H    -4.4    6.7    0.5
I     2.5   -1.4   -7.5
P     4.4   -3.4   -5.9
H     4.5    6.7    0.5
H    -7.5    2.8    1.6
N    -0.4   -4.6    6.7
P    -4.5   -3.4   -5.9
H     7.7    1.5    2.3
H    -5.7    5.9   -0.4
H     4.4    6.9   -1.3
H     4.8   -6.6   -1.4
H    -4.5    6.9   -1.3
H     4.9   -6.7    0.3
H    -7.9   -1.5   -2.3
H     1.0    4.8    6.7
H    -0.1   -8.4    0.5
H     6.1   -5.8   -0.6
C     0.3   -8.3    1.6
H    -1.0   -4.1    7.3
C    -5.0    2.2   -6.5
H    -1.0    6.0    6.0
P    -0.1    0.2   -8.5
H     7.9   -0.4   -3.1
H     1.4   -8.3    1.6
I    -6.4   -5.0    2.9
H    -5.5    1.2   -6.5
H    -0.3    8.3   -2.5
H    -4.3    2.3   -7.3
I     2.6   -1.1    8.3
I     6.2    1.7    6.0
H    -8.6    0.7    1.9
H     0.2    5.2   -7.2
H     4.6    2.3   -7.3
I    -1.9   -2.0    8.5
H    -7.9   -2.5   -3.7
C    -8.6    2.7    1.6
H    -5.7    3.0   -6.5
N     8.8    1.5    2.3
C     0.4    5.4    7.4
H     1.0   -6.2    6.7
I     2.7   -8.5   -2.2
H    -0.1   -3.8   -8.4
H     7.9   -1.4   -4.5
H    -0.3    4.7    7.9
C    -8.5   -2.0   -3.0
H     8.8    2.7    0.5
H     0.3   -5.8   -7.2
I    -6.4    6.0    2.9
I     6.2    5.3   -4.4
I    -7.2    2.3    5.4
N    -0.4    6.4    6.7
H     1.0    8.5   -3.7
N     8.5   -1.0   -3.7
C     0.4   -5.7    7.4
H     9.2    0.7    1.9
H     8.6   -2.7   -2.5
H    -9.0    2.7    0.5
H    -8.7    1.6    3.3
H     0.2    7.1    6.2
N    -9.0    1.5    2.3
P     4.4   -7.1    4.6
I     6.2   -5.7   -4.4
C     0.4    9.0   -3.0
I     7.0   -5.5    3.6
P    -4.5   -7.1    4.6
I    -2.6    9.2    0.9
I     7.0    5.6    3.6
H     0.3    4.3   -8.6
P     8.8   -3.4    1.9
N    -0.1    5.2   -8.1
H    -1.2    5.1   -8.1
H    -8.7   -0.3   -4.2
H     1.0   -5.1    8.2
I    -1.9   -9.4   -1.9
C     9.2    2.7    1.6
H     8.8    3.6    2.1
N    -0.1   -9.5    2.3
P    -9.0   -3.4    1.9
H     9.1    1.6    3.3
H     1.0    9.5   -2.3
I     4.2   -5.3    7.2
H    -9.2   -2.7   -2.5
H    -9.0    3.6    2.1
H    -1.2   -9.6    2.3
I     7.0   -1.8   -6.8
I    -4.2   -8.8    1.8
H    -4.1    0.8    9.0
I    -0.2    2.1    9.7
C     9.3   -2.0   -3.0
I    -6.4   -1.4   -7.5
H     0.2   -9.5    3.3
N    -0.1   -5.9   -8.1
C     0.3   -4.7   -8.9
H     3.3    8.6    3.9
I    -4.7   -5.3    7.2
H     9.1   -0.3   -4.2
N    -9.3   -1.0   -3.7
I    -2.6    1.8   -9.6
I     1.8    9.9    0.6
H    -3.8   -7.9   -5.0
I    -7.1   -5.1   -5.0
H    -1.1   -5.9   -8.1
H     1.4   -4.6   -8.9
H     1.0    5.9    8.2
I    -8.9   -1.7    4.6
I     4.7   -8.8    1.8
I     4.2    5.8    7.2
H    -0.3   -6.3    7.9
I     8.7   -5.3   -0.7
H    -1.0    7.0    7.3
I     8.9   -1.7    4.6
H     4.8    0.8    9.0
P    -8.9    3.9   -3.3
P     8.9    3.9   -3.3
H     9.9   -1.5   -2.3
I     1.8    2.5   -9.9
I    -4.7    5.8    7.2
H    -2.8    1.6    9.8
H    -9.9   -0.4   -3.1
H   -10.1    1.5    2.3
I     1.7   -8.7    5.4
I     8.7    5.8   -0.7
I    -6.3   -1.1    8.3
I     0.0    9.4    4.6
H     0.3  -10.4    1.9
P     4.4    7.6   -5.9
I    -9.1   -5.3   -0.7
I    -7.2    5.9   -5.0
P    -4.5    7.6   -5.9
H     3.9   -8.9   -4.4
H     4.4    3.2    9.2
H    -1.0    9.6   -4.5
H    -4.5    3.2    9.2
N    -3.8    1.3    9.9
H     5.1   -7.9   -5.0
N    -0.4   10.1   -3.7
I    10.7   -1.1    0.6
I    -8.8    2.0   -5.8
H    10.3    2.8    1.6
I     0.1   -9.1   -5.8
I    -6.2   -8.5   -2.2
H     3.2    2.3   10.1
H     3.2   -8.0   -6.5
I    -9.1    5.8   -0.7
I     4.3    9.4   -3.3
I     9.0    2.0   -5.8
I    -4.2   -5.2   -8.6
H    -4.4   -0.7  -10.0
H     9.9   -2.5   -3.7
H     0.3   -6.7   -8.6
H    -9.9   -1.4   -4.5
C     0.3    6.4   -8.9
H    -3.6    8.8    5.4
H     4.5   -0.7  -10.0
H    -0.1   -4.7   -9.9
H    -5.6    8.6    3.9
I    -4.6    9.4   -3.3
H    -0.1   -1.0   11.0
H    -4.3    9.7    3.2
H     1.4    6.4   -8.9
H    -5.0   -8.9   -4.4
I   -10.8    1.7   -1.9
C     3.9    9.6    4.0
N    -4.3   -8.8   -5.2
I     4.7   -5.2   -8.6
H    -0.1    7.3   -8.4
H    -1.0   10.6   -3.1
H     7.9   -5.1    6.0
I     6.3    9.2    0.9
C     4.2    2.6   10.0
H     4.6    9.7    3.2
N     5.1    1.3    9.9
N     4.6   -8.8   -5.2
I     7.0   -2.0    8.5
I    -4.2    5.9   -8.6
H    -7.5   -8.3    1.6
I    -0.2   -1.6  -11.2
P     4.4   -3.4    9.8
P    -4.5   -3.4    9.8
H    -4.0   -3.0  -10.2
C    -4.7    2.6   10.0
H    -8.7   -4.0    6.2
H     3.2   -1.5  -10.8
P     8.9    0.3    7.2
I     4.7    5.9   -8.6
P    -8.9    0.3    7.2
H    -7.9    4.8    6.7
H    -3.6   -9.6   -5.1
H    -4.0    0.7   10.7
I    -2.7   -9.4    6.0
C    -5.0    9.6    4.0
H     7.9   -4.1    7.3
H     0.2   10.7   -4.2
H     7.9    6.0    6.0
I     6.3    1.8   -9.6
H     3.2   10.4    4.0
H     5.3    8.8    5.4
H    -2.8   -2.2  -11.1
I    -1.9    9.2   -6.8
C     3.9   -8.9   -6.5
H     6.1    1.6    9.8
H     9.1   -4.0    6.2
H     8.8   -7.4    2.1
I   -11.5   -1.8    0.9
P     4.4  -10.8   -0.6
H     4.9   -3.0  -10.2
P    -4.5  -10.8   -0.6
C     4.2   -1.2  -10.9
H    -0.1    6.3   -9.9
N     8.5   -4.6    6.7
H    -5.7   -8.0   -6.5
N    -4.3    9.6    5.3
P     8.8    7.6    1.9
H    -5.7    2.3   10.1
H     4.9    0.7   10.7
H    -9.0   -7.4    2.1
P    -8.9   -7.1   -3.3
I     7.0   -9.4   -1.9
P     8.9   -7.1   -3.3
H     0.2   11.7    1.9
C    -4.6   -1.2  -10.9
N     4.6    9.6    5.3
N    -3.8   -2.4  -11.0
H    -1.0  -11.5   -3.1
P    -9.0    7.6    1.9
H     3.9    9.6    6.1
I    11.6    2.5   -2.2
C    -8.6   -8.3    1.6
C    -5.0   -8.9   -6.5
C     0.3   -0.9   12.0
H    -7.9   -6.2    6.7
H     5.3   -9.6   -5.1
P     4.4   11.2   -0.6
H     1.4   -0.9   12.0
H     0.2  -11.4   -4.2
P    -4.5   11.2   -0.6
I    10.6    2.3    5.4
H    -4.3   -8.8   -7.3
H    -7.9    8.5   -3.7
I     1.8   -4.8   11.0
H     8.8   -8.4    0.5
H    -4.4    3.1   10.9
I    -7.1    9.9    0.6
H     4.5    3.1   10.9
H     8.6    8.3   -2.5
H     3.4   -9.8   -6.5
P     8.8    0.2   -8.5
H    -9.0   -8.4    0.5
H     4.6   -8.8   -7.3
I     1.8  -12.2    0.6
H     7.7    5.1   -8.1
H    -5.7   -1.5  -10.8
N     5.1   -2.4  -11.0
N    -9.3   -4.6    6.7
P    -9.0    0.2   -8.5
H    -5.0    9.6    6.1
H    -8.6    5.2   -7.2
I    -7.1    2.5   -9.9
H    -3.8   10.5    5.4
H    -7.9   -5.1    8.2
I     2.5    9.6   -7.5
C     9.2   -8.3    1.6
H    -7.5   -4.6   -8.9
H    -0.1   -0.0   12.5
C    -8.5    5.4    7.4
H    -5.7   10.4    4.0
I    -7.2   -8.7    5.4
H     7.7   -9.6    2.3
P     4.4    3.9  -11.1
P    -4.5    3.9  -11.1
H     4.4   -0.5  -11.7
N     8.5    6.4    6.7
H    -4.5   -0.5  -11.7
H    -7.9    9.5   -2.3
H     8.6    4.7    7.9
N    -0.4  -12.0   -3.7
I    -1.9    9.1    8.5
H    -9.9   -5.1    6.0
C    -8.5   -5.7    7.4
H    -8.6   -5.8   -7.2
H     0.2   -3.0   12.3
H    -9.2    8.3   -2.5
I   -10.8   -5.5    3.6
H     7.7   -5.9   -8.1
I   -10.8    5.6    3.6
H     3.2  -11.7    4.0
H    12.1   -0.6    4.0
H     9.1    5.2   -7.2
H     8.8   -3.8   -8.4
I     6.2   -9.4    6.0
C    -8.5    9.0   -3.0
H    -1.2   12.5    2.3
N    -0.1   12.6    2.3
H     1.0  -12.5   -2.3
