         400
 sphere cut out from bulk 
P     0.6   -1.3    0.6
I    -1.3    0.8    2.0
I     1.5    0.9   -1.9
I    -1.9   -1.7   -1.8
H     1.2    3.0    0.2
H    -3.4    0.5   -1.5
I     3.3   -0.6    1.9
H     0.1    3.0    2.4
H    -0.4    3.8    0.2
C     0.6    3.9    0.6
P     0.6   -1.3   -3.8
I     2.2   -3.3   -1.9
H    -3.5    2.2   -1.5
I    -0.2   -4.0    1.9
N     0.6    3.9    2.1
H     4.1    1.2   -1.5
N    -3.9    1.3   -1.9
H    -3.2   -3.3   -0.3
H     1.6    3.9    2.4
H    -2.9    1.4   -3.7
H     1.1    4.8    0.2
H     1.3    3.1   -3.9
H    -4.9    1.2   -1.5
H     0.1    4.7    2.4
C    -3.9    1.3   -3.3
H    -4.0   -2.9    1.9
H    -0.4    3.7   -3.9
I    -2.4    4.6   -1.9
H     4.2   -3.6   -0.3
N     5.1    1.3   -1.9
N    -3.9   -3.9    0.1
P    -3.9    1.3    3.8
H    -4.3    0.3   -3.7
H    -3.1   -4.5    2.0
H     1.2   -0.6    5.6
C     0.6    3.9   -4.3
C    -4.0   -3.9    1.6
H     5.6    0.5   -1.5
H     1.0   -5.6   -1.5
H     4.7    0.3   -3.7
I    -0.9    0.6   -5.9
H    -4.8   -3.6   -0.3
I    -5.7   -0.6    1.9
I     4.2    3.9    2.0
H     5.5    2.2   -1.5
H     5.0   -2.9    1.9
H    -3.7   -4.9   -0.3
H     4.4    2.1   -3.7
C     5.1    1.3   -3.3
H    -4.6    2.1   -3.7
H     1.0    4.8   -4.0
H    -3.5   -3.0   -4.3
H    -0.8   -1.9    6.0
H     4.1   -4.5    1.9
N     5.1   -3.9    0.1
I    -4.8    3.9    2.0
P     5.1    1.3    3.8
I     2.6    2.1    5.7
C     5.0   -3.9    1.6
I     3.0   -0.9   -5.9
I    -3.2   -1.3    5.7
H     5.8   -3.3   -0.3
H    -0.1   -5.6   -3.7
C     0.9   -0.9    6.7
H    -0.4   -6.6   -1.5
H     0.6   -2.9    6.1
H     0.2    3.0   -6.1
N     0.5   -6.5   -1.9
I    -2.0    3.4    5.6
H    -4.9   -4.5    1.9
N     0.0   -2.1    6.6
I    -0.3   -3.6   -5.9
N     0.6    3.8   -5.8
I     2.7    6.2   -1.9
H     0.3   -0.1    7.1
H     4.0   -4.0   -4.4
H     5.3   -4.9   -0.3
H     6.1    1.4   -3.7
H    -3.4   -4.8   -4.4
C    -4.0   -3.9   -4.7
C     0.6   -6.5   -3.4
I    -1.3    7.0    2.0
H     1.6    3.9   -6.1
H     1.6   -6.4   -3.7
P     0.5   -6.5    3.7
P    -3.9    6.4    0.5
H     1.8   -1.1    7.3
I     7.1   -1.7   -1.8
H     1.1   -7.3   -1.5
H     5.5   -3.0   -4.3
I     2.2   -4.6    5.6
H     5.9   -4.5    2.0
H     0.0    4.6   -6.1
I    -3.1   -6.8   -1.9
H    -5.0   -4.0   -4.4
I    -6.8   -3.3   -1.9
I    -7.5    0.9   -1.9
H    -0.2   -2.4    7.5
C     5.0   -3.9   -4.7
I     7.7    0.8    2.0
I     3.1   -7.2    1.9
H    -3.0   -3.8   -6.5
I     5.8   -1.3    5.7
P     0.6    4.0    7.1
P     5.1    6.4    0.5
I     6.6    4.6   -1.9
H     0.1   -7.4   -3.7
N    -3.9   -3.9   -6.2
P     0.6   -1.2   -8.2
H    -3.4    5.6    5.2
H    -7.8    3.0    0.2
I     4.2    4.2   -5.9
I    -2.2   -5.9    5.5
I    -6.0   -0.9   -5.9
H     1.2    8.3   -1.5
H    -4.5   -3.1   -6.6
P    -3.9    6.5   -3.9
H     4.5   -3.1   -6.6
P    -8.4   -1.3    0.6
H     5.6   -4.8   -4.4
H    -2.9    1.4   -8.0
H    -7.4    3.9    2.4
I     1.5    6.5    5.6
I    -4.8    4.2   -5.9
I    -6.4    2.1    5.7
N     5.1   -3.9   -6.2
I    -1.3   -8.6    2.0
H     0.2    8.2   -3.7
I    -6.3    6.2   -1.9
P    -4.1   -4.0    7.0
H    -4.4    0.4   -8.0
I    -1.4    6.8   -5.9
H    -0.3    9.0   -1.5
P     5.1    6.5   -3.9
H    -7.7    3.1   -3.9
I     3.2    8.4    1.9
H    -4.4   -4.8   -6.6
I     5.9   -6.8   -1.9
H     4.6    0.4   -8.0
C    -8.4    3.9    0.6
H    -7.9    4.8    0.2
H     4.1    6.5    5.2
N     0.6    9.1   -1.9
C    -3.9    1.3   -8.3
H     4.6   -4.8   -6.6
P    -8.4   -1.3   -3.8
N    -3.9    6.5    5.5
H    -2.9    1.4    8.8
H     8.6    3.8    0.2
H     4.5    2.1   -8.0
H    -4.5    2.1   -8.0
P     4.9   -4.0    7.0
I    -3.0    8.8   -1.9
N    -8.4    3.9    2.1
H     5.6    5.6    5.2
I    -5.9   -7.2    1.9
I     7.0    3.4    5.6
I    -0.3    1.6    9.5
H    -3.4    7.4    5.2
H    -4.9    6.5    5.2
H    -7.8   -0.6    5.6
H     6.0   -3.8   -6.5
P     9.6   -1.3    0.6
H    -8.9    3.0    2.4
C     0.7    9.1   -3.4
H     0.3   -5.3   -8.2
H    -4.3    0.4    8.8
P     0.6    9.1    3.7
I     8.8   -4.0    1.9
C     5.1    1.3   -8.3
H     9.1    3.0    2.4
I    -6.8   -4.6    5.6
H    -8.0   -5.6   -1.5
N     5.1    6.5    5.5
I     3.5   -7.2   -5.9
I     1.4    1.3   -9.8
H     4.7    0.4    8.8
I     8.1    0.6   -5.9
I     2.6   -9.5   -1.9
P    -4.0   -9.2    0.5
N    -3.9    1.3    9.2
H    -4.4    2.1    8.8
H     1.7    9.3   -3.7
I    -2.1   -1.9   -9.8
H     1.1   10.0   -1.5
H     4.6    2.1    8.8
H     8.6    3.7   -3.9
H    -8.0    4.8   -4.0
H     6.1    1.4   -8.0
H    -9.4    3.8    0.2
C    -8.4    3.9   -4.3
I    -1.5   -3.6    9.4
H    -4.3    5.6    7.4
I    -9.2   -4.0    1.9
H    -2.8    6.6    7.3
I     3.6   -2.0    9.4
H    -7.2   -1.1    7.3
C    -3.9    6.5    7.0
H     8.2   -1.9    6.0
H     4.7    5.6    7.4
H    -8.9    4.7    2.4
H    -3.5   -8.3    5.2
C     9.6    3.9    0.6
I    -5.8    8.4    1.9
P     9.6   -1.3   -3.8
H    -7.4    3.9   -6.1
H    -7.4   -6.4   -3.7
H     1.7   -6.3   -8.1
P     5.0   -9.2    0.5
I     2.5   -3.1   -9.7
I   -10.3    0.8    2.0
C    -8.1   -0.9    6.7
H     9.1    4.7    2.4
N     9.6    3.9    2.1
N     5.1    1.3    9.2
H     5.6    7.4    5.2
I     6.8   -5.9    5.5
H    10.2    3.0    0.2
I     7.7    7.0    2.0
H     0.0   10.0   -3.7
C     0.8   -6.1   -8.7
I    10.5    0.9   -1.9
P    -4.0   -9.1   -3.9
N    -3.9    1.3   -9.8
I    -1.5   -8.8   -5.9
I     1.4   -9.1    5.6
H    -3.5    0.4  -10.2
H    -8.4   -2.9    6.1
H     6.1    1.4    8.8
I    -5.5   -7.2   -5.9
N    -8.5   -6.5   -1.9
I     6.0    8.8   -1.9
C     5.1    6.5    7.0
H     1.0  -10.8    0.2
H    -9.4    3.7   -3.9
I     3.0    4.3    9.5
H    -0.0   -5.8    9.2
H    -7.9   -7.3   -1.5
N    -8.4    3.8   -5.8
I     3.6    8.4   -5.9
H     8.6   -6.6   -1.5
H    -0.3   -7.6   -7.8
H    -3.5    2.1  -10.2
I    -2.1    4.5   -9.8
H     4.1    1.3  -10.2
I    -5.4   -2.0    9.4
I     8.7   -3.6   -5.9
P     5.0   -9.1   -3.9
N     5.1    1.3   -9.8
I   -10.9   -1.7   -1.8
H    -8.8    3.0   -6.1
H     0.0  -10.9    2.4
C    -8.4   -6.5   -3.4
I    -0.9    5.8    9.5
H    10.1    4.8    0.2
H    -0.2    8.0   -7.8
H     8.9   -5.6   -3.7
H     5.5   -8.3    5.2
C     9.6    3.9   -4.3
H    -8.7   -0.1    7.1
H     4.0   -9.1    5.2
P    -4.1    6.4   -8.3
H    -9.1   -5.6   -3.7
N    -9.0   -2.1    6.6
H    -4.4    7.4    7.4
P    -8.5   -6.5    3.7
H    -3.6   10.7   -0.3
H     4.6    7.4    7.4
I    -2.1    9.7    5.5
H     1.1   -5.8   -9.7
N     9.0   -2.1    6.6
H    -4.9    1.3  -10.2
H     1.5   -6.5    9.2
N    -4.0   -9.1    5.5
H     9.2    3.0   -6.1
H    10.3    3.1   -3.9
C    -3.9    1.3   10.6
N    -0.0   -7.3   -8.8
I    -7.5    6.5    5.6
I    -2.5  -11.1   -1.9
H    -7.8    8.3   -1.5
H    -3.3    0.4   11.0
H     0.9  -10.8   -4.0
H    10.6    3.9    2.4
H    10.0   -5.6   -1.5
I    -9.9    0.6   -5.9
I     2.3    5.8   -9.7
I    -6.4   -9.5   -1.9
H     5.5    0.4  -10.2
P     4.9    6.4   -8.3
H    -9.4   -6.6   -1.5
H    -5.0   -9.1    5.2
I    -9.3   -3.6   -5.9
H     6.2    6.6    7.3
N     0.6   -6.6    9.6
I    -5.4    8.4   -5.9
H    10.2   -0.6    5.6
H     0.0   -0.4   11.7
I     7.7   -8.6    2.0
H    -9.8   -1.9    6.0
P    -8.4    4.0    7.1
N     9.5   -6.5   -1.9
H     9.6   -2.9    6.1
H    -3.0   11.2    2.0
H    -0.9   -7.1   -9.3
H     9.3   -0.1    7.1
H     4.0    1.2   11.0
C     0.5  -11.7    0.6
H    -3.5  -10.0    5.2
H    -3.5    2.2   11.0
N     5.0   -9.1    5.5
I    -0.1   11.6    1.9
I    11.2   -3.3   -1.9
H    10.0    4.8   -4.0
H     5.5    2.1  -10.2
H     8.8   -2.4    7.5
H    -0.5  -11.8    0.2
I     7.6    6.8   -5.9
H    -9.0    4.6   -6.1
P    -8.4   -1.2   -8.2
H     0.2   -2.2   11.6
H     1.6   -1.1   11.7
N     9.6    3.8   -5.8
H     9.0    4.6   -6.1
C     5.1    1.3   10.6
H     0.1   -7.5    9.2
H     4.5   -8.3    7.4
N     0.5  -11.7    2.1
H     0.6    7.5   -9.2
H    -4.5   -8.3    7.4
C     9.9   -0.9    6.7
I     4.1   -6.2    9.4
H     5.4   10.7   -0.3
I    -6.0    4.3    9.5
H    -2.9   -9.1    7.3
C     9.6   -6.5   -3.4
I    -6.5   -3.1   -9.7
H     4.2   11.1    1.9
H     1.5  -11.7    2.4
C     0.6   -1.3   12.0
N     0.1    8.3   -8.8
H    -5.0    1.2   11.0
I     6.9   -1.9   -9.8
P     9.5   -6.5    3.7
I    -3.3   -6.5   -9.7
H    -8.9   -7.4   -3.7
H    -3.3   10.9   -4.4
H    -9.2   -2.4    7.5
P     0.6    3.9   11.5
C    -4.0   -9.1    7.0
H    -4.8   11.1    1.9
I    -4.9   -6.2    9.4
P     0.5    3.9  -11.7
H     0.5   -8.1   -9.2
N    -3.8   11.7    0.1
H     0.2    8.2    9.2
H     9.1   -7.4   -3.7
H    -7.3    9.3   -3.7
H     5.7    0.4   11.0
C    -3.9   11.7    1.6
I   -11.4    4.6   -1.9
I    12.3   -0.6    1.9
H     1.8    9.3   -8.1
I    -7.6    1.3   -9.8
H   -12.4    0.5   -1.5
N    -8.4    9.1   -1.9
H     5.5  -10.0    5.2
H     5.5    2.2   11.0
C     0.5  -11.8   -4.3
H   -11.9    1.4   -3.7
H    -0.5  -11.9   -3.9
C     5.0   -9.1    7.0
H    -8.8    8.2   -3.7
H    -0.1  -11.0   -6.1
H    10.1   -7.3   -1.5
I   -10.3    7.0    2.0
I     2.3   11.0    5.6
I     7.5   -3.6    9.4
H     8.7    9.0   -1.5
H    -7.3   -6.3   -8.1
I     4.2  -11.7    2.0
P     9.6    4.0    7.1
H     1.1  -12.6    0.2
H   -12.2   -3.3   -0.3
H    -0.8    8.5   -9.3
P     9.6   -1.2   -8.2
P    -3.9   -3.9   11.4
I     2.3   12.4   -1.9
H    -3.1   12.3   -0.3
H     1.0   -5.6   11.4
H     4.3   12.0   -0.3
N     5.2   11.7    0.1
I     6.9    4.5   -9.8
H   -12.5    2.2   -1.5
I   -11.0    3.4    5.6
H     0.0  -12.6    2.4
C    -8.4    9.1   -3.4
H     6.0   11.2    2.0
H    -7.9   10.0   -1.5
H    10.6    3.9   -6.1
