         400
 sphere cut out from bulk 
P     0.2    0.2    1.1
I    -2.3    0.1   -1.0
I     1.4   -1.9   -1.0
I     1.4    2.3   -1.0
P     0.2    0.1   -3.2
I    -1.1   -2.0    3.1
I    -1.2    2.2    3.1
H    -3.4   -2.0    0.0
I     2.5    0.2    3.2
H    -2.8   -2.8    1.4
H     0.5    4.5   -0.4
N    -3.6   -2.8    0.7
H    -3.8    2.0   -1.8
H     3.6   -3.0    0.6
H     4.2   -1.8    1.8
H     3.9    2.6   -1.8
H    -3.4   -3.7    0.2
H    -0.6    4.8    1.8
H     1.0   -4.6   -2.4
P     0.1    0.1    5.3
C     4.4   -2.8    1.3
N     0.2    5.5    0.0
H    -0.7   -5.1   -2.3
H     1.2    5.2    1.9
H    -5.0   -1.8    1.8
N    -4.4    2.8   -2.1
C     0.2    5.5    1.5
H    -0.8    5.6   -0.4
I    -1.0    2.1   -5.2
I    -1.0   -2.1   -5.2
H    -4.1    3.7   -1.8
C    -4.9   -2.8    1.3
H    -3.5    2.5    3.9
I     2.7    0.0   -5.3
C     0.3   -5.3   -2.7
N     4.8    2.8   -2.1
H     4.3   -3.6    2.1
H     4.1    2.0    3.9
H     5.4    2.0   -1.8
H    -3.4    3.1   -4.0
H     5.8   -2.0    0.0
H    -5.4    2.6   -1.8
H     0.8    6.2   -0.4
H    -0.1   -4.4   -4.5
H    -4.6    1.8   -4.0
H     4.6    1.8   -4.0
C    -4.4    2.8   -3.6
N     5.7   -2.8    0.7
H    -0.4   -4.4    4.6
H    -5.7   -3.0    0.6
H    -4.9   -3.6    2.1
H     5.2    3.7   -1.8
C     4.8    2.8   -3.6
H     4.1    3.5   -4.0
H    -0.1    6.5    1.8
H    -5.1    2.0    3.9
N     0.2   -5.3   -4.2
H     0.6   -6.3   -2.4
N    -4.5    2.7    4.3
H     1.1   -5.2    4.3
I    -3.2   -6.0   -1.0
I    -3.2    6.0   -1.0
H     5.8   -3.7    0.2
H     4.4    3.6    3.9
N     4.8    2.7    4.3
I     7.0    0.1   -1.0
C     0.4   -5.0    5.1
H     6.4   -2.8    1.4
H    -4.8    3.6    3.9
H     1.2   -5.4   -4.6
P     0.3    0.1   -7.4
H     0.9   -4.4    5.9
H     5.7    2.5    3.9
H    -5.2    3.5   -4.0
I    -6.7    0.2    3.2
H    -3.3   -2.0   -6.3
H    -0.4   -6.0   -4.5
I     3.7    5.9    3.1
H    -4.3    1.7    6.1
H     5.8    3.1   -4.0
I     1.4   -2.0    7.3
I     1.2    2.2    7.4
I    -2.3   -0.0    7.4
H     3.8    3.0    6.1
I     3.6   -6.2    3.2
C    -4.5    2.7    5.8
H     4.4   -1.3   -6.5
C     4.7    2.7    5.8
H    -3.7    3.4    6.2
H    -0.6    4.7   -6.5
H     4.9    1.7    6.1
I    -7.9   -1.9   -1.0
H    -4.8   -1.3   -6.5
I    -7.8    2.3   -1.0
N    -4.1   -1.8   -7.0
H     1.2    5.1   -6.4
H    -0.5   -6.8    4.9
N    -0.1   -6.2    5.6
I     2.4    8.0   -1.0
I    -6.6    0.0   -5.3
I     6.0   -6.0   -1.0
I     6.1    6.0   -1.0
H    -3.7   -1.1   -7.7
I     2.5   -8.2   -1.0
I    -5.6    5.9    3.1
C     0.2    5.4   -6.8
I     3.5   -6.0   -5.3
H    -0.9   -6.0    6.3
H    -5.5    3.0    6.1
I     3.7    6.1   -5.2
H     4.2   -3.7   -6.9
N     5.2   -1.8   -7.0
I     8.1    2.2    3.1
H     5.5    3.4    6.2
H     5.9   -2.0   -6.3
I    -1.9   -8.1    3.2
I    -5.7   -6.2    3.2
I     8.2   -2.0    3.1
I    -2.0    8.1    3.2
H    -0.1    6.4   -6.4
P    -9.0    0.2    1.1
H     0.6   -6.8    6.1
H    -5.0   -3.7   -6.9
P    -4.4   -8.1    1.1
H     0.4    4.5    8.1
P    -4.4    8.1    1.1
C    -4.6   -3.0   -7.6
C     4.6   -3.0   -7.6
P     0.2    0.1    9.4
P     4.8    8.1    1.1
P     9.4    0.2    1.1
P    -9.0    0.1   -3.2
P     4.9   -8.1    1.1
H     5.5   -1.1   -7.7
H    -3.8   -3.5   -8.1
I    -1.9   -7.9   -5.2
H     3.9   -2.7   -8.4
I    -2.2    0.1   -9.4
H     3.8   -2.8    8.4
P    -4.4   -8.0   -3.1
H    -8.2   -4.6   -2.4
I    -5.6    6.1   -5.2
I     1.4   -1.9   -9.5
H    -8.1    5.2    1.9
H     0.5    4.5   -8.7
I    -5.7   -6.0   -5.3
I     1.3    2.3   -9.5
H    -8.7    4.5   -0.4
P    -4.5    8.2   -3.1
H    -0.9    5.5    8.1
P     4.9   -8.0   -3.1
H    -3.8   -1.2    9.1
H     0.0   -9.7    1.8
N     0.2    5.4   -8.3
P     4.8    8.2   -3.1
I     8.3    2.1   -5.2
P     9.5    0.1   -3.2
I     8.3   -2.1   -5.2
I    -2.0    8.3   -5.2
I    -3.2    6.0    7.4
H     0.9  -10.0   -0.4
H     8.7    4.8    1.8
N     0.1    5.4    8.5
I    -3.2   -6.1    7.4
H    -3.8   -3.6    8.7
I     6.9   -0.0    7.4
H     8.5    5.6   -0.4
H     8.6   -5.1   -2.3
H     0.5    9.9   -2.4
H     0.7    6.1    8.2
H    -5.4   -2.7   -8.4
H    -0.8    5.6   -8.7
H    -5.4   -2.8    8.4
H     5.5   -3.5   -8.1
H    -8.4    6.2   -0.4
H    -8.1   -5.2    4.3
I    -6.9    8.0   -1.0
P    -9.2    0.1    5.3
N    -9.1    5.5    0.0
H    -0.6    9.4    4.9
P    -4.5    8.0    5.3
H    -0.7  -10.6   -0.4
H     5.5   -1.2    9.1
H     0.8    6.2   -8.7
P     4.7    8.0    5.3
C     4.6   -3.1    9.2
P     9.3    0.1    5.3
C    -9.1    5.5    1.5
I    -6.8   -8.2   -1.0
P    -4.5   -8.2    5.3
I    -3.1  -10.2   -1.0
C    -8.9   -5.3   -2.7
C    -4.7   -3.1    9.2
H    -8.1   -5.4   -4.6
N     0.3  -10.8    0.0
H     9.8    4.5   -0.4
N    -4.2   -1.9    9.8
I    -3.3   10.3   -1.0
H     5.4   -3.6    8.7
I    10.6   -1.9   -1.0
C     0.2  -10.8    1.5
P     4.8   -8.2    5.3
N     9.4    5.5    0.0
H     8.8   -4.4    4.6
I   -10.3   -2.0    3.1
I    -7.9   -2.0    7.3
H    -8.6   -6.3   -2.4
I    10.7    2.3   -1.0
C     9.4    5.5    1.5
I     2.3    8.0    7.3
H    -9.8    4.8    1.8
H     9.1   -4.4   -4.5
H    -8.3   -4.4    5.9
I    -8.0    2.2    7.4
I   -10.4    2.2    3.1
I     3.5   10.1    3.2
H    -0.5   10.2   -4.5
H    -3.4   -2.1   10.5
N     5.1   -1.9    9.8
N    -9.0   -5.3   -4.2
C     0.2   10.9   -2.7
C     9.6   -5.3   -2.7
I     6.0    6.0    7.4
H     1.2  -11.0    1.9
H     0.6    9.5    6.1
I     2.3   -8.3    7.3
H    -9.4   -4.4   -4.5
H     4.3   -1.4   10.3
I     6.0   -6.1    7.4
C    -8.8   -5.0    5.1
I     7.2    8.1    3.2
C     0.1    5.4   10.0
H    -0.7    4.6   10.3
I     7.3   -8.1    3.2
H     9.2    6.5    1.8
H    -9.9   -5.1   -2.3
H     4.1   -3.7    9.9
H    -0.8   11.2   -2.3
I     3.8  -10.4    3.1
N    -0.2   10.0    5.6
H    10.3   -4.6   -2.4
H    -9.3    6.5    1.8
H   -10.0    5.6   -0.4
H    -4.9   -1.4   10.3
P     0.1    0.1  -11.5
H    -8.1    5.1   -6.4
I   -11.5    0.1   -1.0
H    -9.7   -4.4    4.6
H     1.1    5.1   10.4
P    -9.0    0.1   -7.4
H    -4.2    1.8  -10.7
H    -0.5  -11.5    1.8
I    -3.1    6.1   -9.4
I    -3.1   -6.0   -9.5
N     9.5   -5.3   -4.2
H     8.9   -6.0   -4.5
I   -10.2    2.1   -5.2
I   -10.2   -2.1   -5.2
H     0.6  -11.7   -0.4
I     7.0    0.1   -9.4
H     0.0   -9.8   -6.4
N     0.2   10.9   -4.2
P    -4.4   -8.1   -7.3
H     3.8    3.1  -10.7
H     1.1   10.8   -4.6
H    10.4    5.2    1.9
H    -5.1   -3.7    9.9
H    -3.7    3.5  -10.7
H     8.7    4.7   -6.5
H     1.0   -4.3  -10.9
I    -1.1   -2.2   11.6
I    -1.1    2.0   11.6
P    -4.4    8.1   -7.3
H    10.1    6.2   -0.4
I     2.6   -0.1   11.5
H     1.1   11.0    4.3
I     5.9   10.3   -1.0
H     5.0    1.8  -10.7
H     9.8   -6.3   -2.4
H     1.0   11.7   -2.4
I     7.3   -7.9   -5.2
P     4.9   -8.1   -7.3
P     4.8    8.1   -7.3
I     6.2  -10.2   -1.0
C     9.7   -5.0    5.1
H    -1.0   10.2    6.3
I     3.5   10.2   -5.3
I    -5.8   10.1    3.2
I     3.8  -10.2   -5.2
P     9.5    0.1   -7.4
H     8.4   -6.0    6.3
H     8.8   -6.8    4.9
H    -0.8   -6.0  -10.5
I    -5.5  -10.4    3.1
H    -0.2    6.4   10.4
H     5.9   -2.1   10.5
C    -4.4    2.8  -11.0
I     7.2    8.3   -5.2
I    11.8    0.2    3.2
H    -9.6   -6.0   -4.5
C     4.8    2.8  -11.0
C     0.3   11.3    5.1
H    -5.4    3.1  -10.7
H    10.4   -5.2    4.3
N     9.1   -6.2    5.6
I    -7.8   -1.9   -9.5
H   -12.1   -2.8    1.4
H     5.6    3.5  -10.7
H    10.2   -4.4    5.9
H    -8.6   -6.8    6.1
I    -7.9    2.3   -9.5
N    -9.4   -6.2    5.6
C    -9.1    5.4   -6.8
H     0.7   -6.7  -10.7
H    10.4   -5.4   -4.6
I     2.3    8.0   -9.5
H    -9.8    4.7   -6.5
I    -5.5  -10.2   -5.2
H    -0.2   11.9   -4.5
H    -0.5   11.8    4.6
C     0.5   -4.9  -11.7
I     2.4   -8.2   -9.5
C     0.2  -10.8   -6.8
I     6.1    6.1   -9.4
I     6.1   -6.0   -9.5
N    -0.0   -6.1  -11.2
H    -8.8    4.5    8.1
C     9.4    5.4   -6.8
H    -9.7   -6.8    4.9
H   -12.7   -2.0    0.0
H     1.2  -11.1   -6.4
I    -5.8   10.2   -5.3
I    -7.0    8.0    7.3
H    -0.3   -4.3  -12.2
H     8.4    5.5    8.1
H     9.2    6.4   -6.4
I    -3.3   10.1    7.4
H    -3.5   12.5    0.2
I    10.5    2.2    7.4
H     0.8  -10.1    8.2
I    -3.1  -10.2    7.4
I    -6.9   -8.3    7.3
I    11.9    0.0   -5.3
H    -9.3    6.4   -6.4
I    10.6   -2.0    7.3
H    -8.4  -10.0   -0.4
H    -0.2   -4.4   12.3
P    -9.1    0.1    9.4
H    -8.7    4.5   -8.7
N   -12.8   -2.8    0.7
H    12.8   -3.0    0.6
H    -0.5  -11.5   -6.5
H   -12.7   -3.7    0.2
H     0.8   11.8    5.9
P    -4.5    8.1    9.5
H    -4.0  -12.5   -1.8
P    -4.4   -8.2    9.5
H    10.4    5.1   -6.4
H     0.9  -10.0   -8.7
H    -8.5    6.1    8.2
P     4.7    8.1    9.5
I    -6.7   -0.1   11.5
H   -13.1    2.0   -1.8
H     8.5    5.6   -8.7
P     9.4    0.1    9.4
H   -10.1   -6.0    6.3
P     4.8   -8.2    9.5
H     9.7    4.5    8.1
H    -8.7    9.9   -2.4
N    -9.1    5.4   -8.3
H     9.9   -6.8    6.1
H     1.1   -5.5   12.2
H    -0.8  -10.7    8.1
H     4.2   12.6    2.1
H    13.1    2.6   -1.8
I     3.5   -6.1   11.5
I     3.6    6.0   11.6
N    -4.4    2.8  -12.5
H    -9.2   -9.7    1.8
H     9.3   -9.7    1.8
H    -3.4    2.6  -12.9
H     1.2   -5.1  -12.5
H    -8.4    6.2   -8.7
N     0.3  -10.8   -8.3
H   -12.8    2.5    3.9
N    -9.2    5.4    8.5
H     8.6  -10.6   -0.4
P     0.2   -0.0   13.6
H   -12.7    3.1   -4.0
H    -3.5    3.1   12.8
N     9.4    5.4   -8.3
H     5.2  -12.5   -1.8
H     8.7    9.4    4.9
N     4.8    2.8  -12.5
H     4.2    2.0  -12.9
N     0.2   -5.4   12.6
H    -0.5   -6.1   12.3
H     4.5    1.7   12.8
H    -0.7  -10.6   -8.7
H    13.5   -1.8    1.8
