         400
 sphere cut out from bulk 
I    -0.1   -0.4   -0.1
H    -2.7   -0.8    0.6
P     0.7    0.6    2.7
P    -0.0   -0.6   -3.3
H    -0.7    3.3    0.4
N    -3.6   -1.3    0.7
H    -0.9    3.2   -2.0
I    -2.2    1.9    2.9
H    -3.3   -2.1    1.3
H    -2.5    3.3   -1.2
C    -0.9    4.2   -0.1
N    -1.6    3.8   -1.4
I     1.1    2.5   -3.4
H    -3.6   -2.3   -1.1
H    -4.2   -0.7    1.3
C    -4.2   -1.7   -0.5
I    -2.9    0.7   -3.5
I     3.2   -1.2   -3.2
H    -4.5   -0.8   -1.1
I     3.8    0.1    2.8
H     0.0    4.8   -0.4
I     1.7    3.7    2.6
I    -1.5   -3.5   -3.1
H    -1.6    4.9    0.4
I     0.1   -1.3    5.1
H     4.8   -2.2   -0.3
H    -1.8    4.7   -1.9
H    -1.0   -5.4    0.4
H     0.6   -5.5   -0.4
H    -5.2   -2.2   -0.3
H     5.5   -0.8   -1.1
P     4.2    1.9   -3.4
I    -3.0   -4.2    2.5
I     5.0    3.0   -0.6
I    -5.0    3.0   -0.6
H     5.8   -0.7    1.3
C     5.7   -1.7   -0.5
H    -1.2   -5.6   -1.9
C    -0.3   -6.0   -0.1
H     0.1   -3.8    4.8
H    -1.0   -4.7    3.8
H    -3.3   -2.4    4.8
P     4.9    3.2    2.7
H    -1.2    3.6    5.2
H     0.1    5.1    3.9
H    -3.6   -3.0   -4.5
H     0.7   -5.1    3.9
N    -0.1   -4.8    4.5
N     6.4   -1.3    0.7
P    -5.1    3.2    2.7
I     0.2   -1.2   -6.5
N    -1.0   -6.4   -1.4
I    -6.2    0.1    2.8
H     6.4   -2.3   -1.1
H    -1.6    5.5    3.8
H    -0.1   -6.9    0.4
P    -5.8    1.9   -3.4
H     4.8   -2.6   -4.6
H     6.6   -2.1    1.3
H    -0.1    4.7   -5.3
H    -4.0   -1.1    5.7
H     4.9   -2.1    4.7
C    -4.2   -2.1    5.4
N    -0.7    5.5    4.5
H    -4.0   -1.0   -5.9
H    -5.1   -2.1    4.7
H    -1.9   -6.9   -1.2
H    -0.3   -7.0   -2.0
C    -1.0    4.6    5.6
N    -4.4   -2.9   -5.1
H     7.3   -0.8    0.6
H    -5.2   -2.6   -4.6
I     2.3   -6.5    2.6
H    -1.1    3.6   -6.4
I    -3.6    6.0    2.5
I    -6.8   -1.2   -3.2
H    -1.8    5.0   -5.5
C    -0.9    4.6   -6.0
H    -1.2   -5.3   -5.5
H     0.5   -5.6   -5.3
I    -2.1    6.8   -3.1
C    -4.1   -2.0   -6.3
H     0.1   -3.7   -6.8
H    -0.2    4.6    6.3
H    -3.2   -2.4   -6.8
I     7.1    0.7   -3.5
C    -0.4   -5.7    5.6
H    -0.6    6.5    4.8
H    -1.9    4.9    6.1
H    -4.6   -3.9   -5.4
N     5.6   -2.9   -5.1
C     5.8   -2.1    5.4
C    -0.3   -5.6   -6.0
H    -1.3   -5.3    6.1
H     7.5    3.3   -1.2
H     5.9   -1.1    5.7
P    -0.1   -0.7    8.3
H     6.4   -3.0   -4.5
I     4.7    3.8   -5.8
I     4.7    3.8    5.9
N    -4.5   -3.0    6.5
H     6.0   -1.0   -5.9
H     0.5   -5.7    6.3
I     6.9   -4.2    2.5
I     7.7    1.9    2.9
H    -0.6   -6.7    5.2
I    -4.4   -7.3   -0.6
N    -0.1   -4.7   -7.2
H    -3.6   -3.0    7.1
H     5.4   -3.9   -5.4
H     6.7   -2.4    4.8
I     1.0    2.4    8.2
I    -3.0    0.6    8.1
I     1.7   -7.8   -3.4
I    -5.2    3.8   -5.8
H    -4.7   -4.0    6.2
I    -5.3    3.8    5.9
P    -4.5   -7.0    2.7
H    -5.0   -2.0   -6.9
H     5.0   -2.0   -6.9
C     5.9   -2.0   -6.3
H     4.7   -2.6    7.1
P     0.7    0.7   -8.9
I    -1.6   -8.3    2.9
H    -4.2    7.9   -1.1
N     5.5   -3.0    6.5
I     3.1   -1.2    8.4
H     5.3   -4.0    6.2
H     4.2    8.1   -0.3
N    -0.7    5.6   -7.2
I     6.3    6.0    2.5
H    -0.9   -4.6   -7.8
H    -3.9    8.1    1.3
I     5.6   -7.3   -0.6
H    -5.3   -2.6    7.1
H    -0.5   -6.6   -6.4
I    -2.1    2.0   -8.7
H     0.7   -5.1   -7.7
P     5.5   -7.0    2.7
H     0.1    5.2   -7.7
N     8.4    3.8   -1.4
I    -1.6   -3.5    8.5
P     4.1    1.8    8.3
I    -8.3    3.7    2.6
H    -0.5    6.5   -6.8
H    -4.2    7.3   -4.5
H     8.2    4.7   -1.9
H     4.8    6.4   -5.4
I     3.8    0.2   -8.8
I     8.5   -3.5   -3.1
H    -1.5    5.6   -7.8
P    -9.3    0.6    2.7
H     8.4    4.9    0.4
I    -4.6   -6.4   -5.8
H     9.0    3.2   -2.0
H    -5.2    6.4   -5.4
I    -8.9    2.5   -3.4
H     6.7   -2.4   -6.8
I     9.8   -0.4   -0.1
I    -0.7    9.8   -0.1
H     4.2    7.7   -4.6
C    -4.9    8.6   -0.5
H     5.8    7.9   -1.1
H     9.3    3.3    0.4
H    -5.8    8.1   -0.3
N    -4.2    9.0    0.7
I    -4.7   -6.5    5.9
I     1.7    3.8   -9.1
I     2.6    9.1   -3.2
H    -3.9    7.8    4.8
H     4.7    6.3    6.2
C     5.1    8.6   -0.5
H     6.3   -3.0    7.1
C     9.1    4.2   -0.1
H    -3.3    9.5    0.6
P     1.3   -9.6    2.7
I   -10.1   -0.4   -0.1
I     5.3   -6.4   -5.8
P     4.8   -8.3   -3.4
P    -0.6    9.6   -3.3
H     6.0    8.1    1.3
H    -1.0    3.2    9.6
I     5.3   -6.5    5.9
N     5.0    7.3   -5.1
N    -5.0    7.3   -5.1
H    -5.3    6.3    6.2
P    -5.9    1.8    8.3
H     4.3    8.1    4.7
H     5.8    7.3   -4.5
I    -0.5    9.0    5.1
P    -5.2   -8.3   -3.4
I    -7.7   -6.5    2.6
I    -3.0   -4.1   -9.2
I    -2.3   -9.6   -3.5
H     9.0   -5.4    0.4
P    10.0   -0.6   -3.3
P   -10.0   -0.6   -3.3
H     8.8   -5.6   -1.9
H    -5.8    7.7   -4.6
I     0.5  -10.7   -0.1
I     7.0    0.6    8.1
N     5.8    9.0    0.7
H     8.1   -6.9   -1.2
H     4.9    9.5   -1.1
P     4.9    3.3   -9.0
H     8.4    5.5    3.8
I    -6.1    0.2   -8.8
H    -4.8    9.6    1.3
P    -5.0    3.3   -9.0
H    -5.1    9.5   -1.1
H    -9.3   -5.5   -0.4
H     8.8    3.6    5.2
I     7.9    6.8   -3.1
H     9.0   -4.7    3.8
C    -4.8    8.2    5.4
H    -1.9    4.6    9.7
N     4.9    7.3    6.5
I    -6.9   -1.2    8.4
H     5.2    9.6    1.3
H    -5.7    8.1    4.7
N    -5.1    7.3    6.5
P    10.6    0.6    2.7
H    -4.2    7.2    7.1
H     8.1    5.0   -5.5
H     6.1    7.8    4.8
H    -9.9    4.8   -0.4
N    -1.6    3.8   10.2
H    -3.3   -2.1  -10.3
I    -2.2    6.7    8.5
C     5.2    8.2    5.4
H    10.0    4.8   -0.4
H    -3.8    7.9   -6.8
H    -4.1   -0.6  -10.3
H   -10.6    3.3    0.4
N     9.0   -6.4   -1.4
I     3.2   10.3    2.8
H     4.1    7.6    7.1
I    -0.4    9.1   -6.5
I    -9.9   -1.3    5.1
H    -2.5    3.3   10.4
H    -2.1  -11.0    0.6
P     0.1   10.9    2.7
H     8.1    4.9    6.1
H    -1.3   -5.6    9.7
H    -9.3   -5.1    3.9
I    10.1   -1.3    5.1
I     2.4   -6.5   -9.1
C    -4.7    8.2   -6.3
P     0.6  -10.9   -3.3
H    -2.6   -0.7  -11.1
C     9.7   -6.0   -0.1
I     4.4  -10.2    2.8
H    -3.6   -2.4   10.6
I     1.6   -7.8    8.2
N    -3.5   -1.2  -10.9
H    -4.5   -0.8   10.5
C     9.0    4.6    5.6
H     8.9    3.6   -6.4
H   -10.9    3.2   -2.0
I    -0.2   -0.5   11.6
I    -3.6    6.1   -9.2
H     8.7   -5.3   -5.5
H    -3.6  -10.9    1.3
C     5.2    8.2   -6.3
H     6.7    9.5    0.6
H     4.4    8.2   -6.9
N     9.2    5.5    4.5
H    -9.9   -3.8    4.8
C   -10.9    4.2   -0.1
H     5.7    7.2    7.1
I    -0.0   -0.3  -11.7
H    -0.6    3.4  -11.2
H    -3.9  -11.0   -1.1
H    10.0   -3.8    4.8
H    -4.6    9.2    5.7
C     9.0    4.6   -6.0
N     9.8   -4.8    4.5
H    -9.9    5.1    3.9
I    -9.8   -1.2   -6.5
I    11.0    2.5   -3.4
H     5.8   -0.6  -10.3
I    -8.3   -7.8   -3.4
H     8.7   -5.3    6.1
H    -4.6    9.3   -5.9
C   -10.2   -6.0   -0.1
H     5.4   -0.8   10.5
I     7.8    2.0   -8.7
N    -3.0  -11.5    0.7
H    10.0    5.1    3.9
H    -5.9    7.6    7.1
I    -5.6  -10.2    2.8
H    10.6   -5.5   -0.4
H    -0.4   -7.1    9.6
I    -3.5   10.9   -3.5
N   -10.1   -4.8    4.5
C    -4.3   -1.7   11.1
H     5.3    9.2    5.7
H     9.6   -7.0   -2.0
H     6.1    7.9   -6.8
H     9.9   -6.9    0.4
I    10.1   -1.2   -6.5
H    -5.6    8.2   -6.9
I    -1.5   -8.3   -8.7
I     8.4   -8.3    2.9
I    -7.4    9.1   -3.2
H     9.9    4.7   -5.3
N    -1.0   -6.5   10.2
H   -10.9   -5.4    0.4
H    -0.0    4.7   11.2
H   -10.0   -6.9    0.4
H    -9.4   -5.6   -5.3
P    -4.4   -7.0   -9.0
H     5.4    9.3   -5.9
N   -11.5    3.8   -1.4
I     7.0   -4.1   -9.2
C    -1.0    4.2   11.5
H   -10.0    4.7   -5.3
H    -1.5    5.0  -11.2
I   -11.5   -3.5   -3.1
H     9.4    6.5    4.8
I    -9.0    2.4    8.2
H    -0.9   -5.3  -11.2
I     3.8  -11.4   -3.2
I     4.9    2.9   11.1
H    10.6   -5.1    3.9
C     9.6   -5.7    5.6
I     8.4   -3.5    8.5
C    -3.6  -11.9   -0.5
I    11.6    3.7    2.6
H     6.7   -2.1  -10.3
I    -5.1    2.9   11.1
H   -10.9   -4.7    3.8
H    -0.7    3.3   12.1
H    -2.7   -0.8   12.2
H   -11.5    4.9    0.4
H     4.7   -2.3   11.4
H     6.3   -2.4   10.6
H     9.8    4.6    6.3
H    -9.8   -3.7   -6.8
C    -0.8    4.3  -11.8
H     0.6   -5.6   11.2
I     2.5    9.0    8.4
C     5.6   -1.7   11.1
H   -11.2   -5.6   -1.9
H   -10.3   -7.0   -2.0
I     0.7  -11.5    5.1
H     6.1  -11.0   -1.1
P     5.5   -7.0   -9.0
C     9.6   -5.6   -6.0
I   -12.2    1.9    2.9
H     9.4   -6.7    5.2
H   -12.6   -0.8    0.6
P    -0.7    9.5    8.3
I    -6.8   10.3    2.8
P     4.7   -8.4    8.3
H    -1.9   -7.0   10.4
N     6.5   -1.2  -10.9
H    -5.2   -2.3   11.4
H     6.4  -10.9    1.3
I     6.4    6.1   -9.2
H    -9.5   -5.7    6.3
H    -2.7  -12.4    1.3
N   -10.9   -6.4   -1.4
H    10.1   -3.7   -6.8
H   -10.1    4.6    6.3
I     7.7   -9.6   -3.5
H     8.5    5.6   -7.8
H   -11.8    4.7   -1.9
I    -8.2    3.8   -9.1
I    -2.8   12.2    2.9
H   -11.1    3.6    5.2
H     9.1   -4.6   -7.8
I    -2.4   -9.7    8.1
N   -10.7    5.5    4.5
P    -9.2    0.7   -8.9
P    -5.3   -8.4    8.3
H   -12.4    3.3   -1.2
C    -4.2   -1.6  -12.1
P     9.9   -0.7    8.3
H    -3.0  -12.6   -1.1
H     0.1    4.8  -12.0
N    -3.6   -1.3   12.4
N     9.3    5.6   -7.2
C    -0.4   -6.1   11.5
H     4.9   -2.1  -11.9
H    10.5   -5.6   -5.3
H    -9.2   -5.1   -7.7
P   -10.1   -0.7    8.3
N     9.9   -4.7   -7.2
H    -1.6    4.8   12.1
C   -10.4   -5.7    5.6
H    -5.1   -2.1  -11.9
P     1.3   -9.5   -8.9
H     0.0   -6.8  -11.2
H    -3.4  -11.2   -5.9
P     3.6   12.2   -3.4
H    -3.4  -11.3    5.7
C   -11.0    4.6    5.6
I     6.5   10.9   -3.5
C    -0.2   -5.9  -11.8
