         400
 sphere cut out from bulk 
H     0.4   -1.2   -1.4
H     0.1    0.4   -2.1
C     0.4   -0.6   -2.3
I     1.9   -1.2    1.1
I     0.3    2.7   -0.0
P     0.0    0.9    2.6
I    -2.6   -0.6    1.6
H     1.3   -0.6   -2.9
H    -1.6   -1.3   -2.7
N    -0.7   -1.3   -3.2
H     2.9    2.2   -0.1
H    -0.4   -2.2   -3.4
H    -3.1    2.9   -0.2
H    -0.8   -0.8   -4.1
N     4.0    2.0   -0.1
H     4.2    1.3   -0.8
H     4.1    1.5    0.8
H     1.2   -4.0    2.0
I    -1.8   -4.3   -1.0
H    -1.0   -4.7    1.5
I    -4.3   -0.8   -2.6
H    -4.8    1.3   -0.8
H    -1.0   -4.0    3.0
H    -4.8    1.5    0.8
I     2.9    2.3    3.7
I     2.0    2.5   -4.1
P    -4.5   -2.7    0.0
C    -4.2    3.2   -0.2
P     0.1    4.6   -2.6
P     4.5   -2.7    0.0
I    -1.7    3.1    4.0
N    -5.0    2.0   -0.1
N    -0.7   -4.8    2.4
I     0.1   -0.9    5.3
I     4.7   -0.8   -2.6
I    -2.5    3.1   -3.7
C     0.8   -4.9    2.4
H     3.9   -0.4    4.0
H     1.1    5.2    1.8
I     2.7   -4.8   -1.5
C     4.8    3.2   -0.2
H     2.8   -1.3    4.9
H    -4.4    3.6   -1.2
H    -4.4    3.9    0.6
H     4.6    3.6   -1.2
H     3.9   -2.1    4.0
H     4.6    3.9    0.6
N     3.8   -1.3    4.6
H    -1.0    5.3    2.8
H     1.1   -5.8    1.8
H     1.2   -5.0    3.4
H    -3.2   -1.2    5.3
H    -1.1   -5.6    2.8
H    -6.0    2.2   -0.1
H    -5.1   -0.4    4.0
H    -1.0    6.3    1.5
H     5.9    2.9   -0.2
I     6.3   -0.6    1.6
C     0.9    6.0    2.4
N    -0.6    6.2    2.4
I    -1.8   -0.3   -6.4
I     0.1   -4.3   -5.1
H    -5.0   -2.1    4.0
I    -4.5   -4.5    2.7
I     2.7    6.1   -1.5
P     0.0   -6.4   -2.6
I     4.5   -4.5    2.7
H    -0.7    2.7    6.4
P    -4.4    1.0   -5.2
I    -1.8    6.6   -1.0
H     1.2    5.9    3.4
P     4.5    1.0   -5.2
N    -5.2   -1.3    4.6
H    -0.3    1.2    7.0
H     4.4   -3.7   -4.2
H    -4.5   -3.7   -4.2
C    -4.3   -1.2    5.7
I    -7.0   -1.2    1.1
H     1.3    6.9    2.0
I     2.8   -1.2   -6.8
I    -6.1    2.3    3.7
C     4.7   -1.2    5.7
H     1.1    2.5   -7.0
N    -0.6    2.2    7.3
H    -0.9    7.0    3.0
H    -3.3   -4.6   -5.1
H    -4.4   -0.3    6.3
H     2.7   -4.7   -5.5
H     4.5   -0.3    6.3
C    -4.3   -4.6   -4.7
H     5.7   -1.2    5.3
H    -1.1    1.9   -7.6
H     7.4   -1.3   -2.7
H    -4.4   -2.1    6.4
H    -6.2   -1.3    4.9
C     4.6   -4.6   -4.7
I     6.5    3.1   -3.7
I    -6.3   -4.8   -1.5
H     4.6   -2.1    6.4
P    -4.4    4.5    5.2
H    -4.4    5.5   -4.1
H    -1.5    2.2    7.7
H     4.5   -5.5   -4.1
H     1.4    2.8    7.6
H    -4.5   -5.5   -4.1
H     4.5    5.5   -4.1
H    -7.7   -0.6   -2.9
I     0.2   -8.3   -0.0
I    -4.4    6.5    2.7
P     4.6    4.5    5.2
P    -0.1   -2.6   -7.9
I     2.0   -5.0    6.3
H    -1.0    3.6   -7.5
N     3.7   -4.7   -5.9
H    -4.5   -7.1    0.6
P     0.1   -2.9    7.9
I     7.1   -4.3   -1.0
I     4.6    6.5    2.7
I     0.1    6.6   -5.1
H     4.5   -7.1    0.6
H     3.8   -3.8   -6.5
I    -2.5   -4.4    6.8
C     0.8    2.6   -8.0
N    -0.7    2.7   -8.0
I    -7.0    2.5   -4.1
C     0.5    2.8    8.1
H    -4.4   -7.3   -1.2
H    -3.2   -8.1   -0.2
H     4.5   -7.3   -1.2
H    -8.5   -1.2   -1.4
H    -3.3    6.3   -5.1
H     2.8    6.3   -5.5
C    -4.2   -7.8   -0.2
H     1.1    1.7   -8.6
I    -6.3    6.1   -1.5
I     2.1    5.9    6.3
H     5.6   -4.6   -5.1
I     7.3    3.1    4.0
H    -7.7   -4.0    2.0
C    -8.6   -0.6   -2.3
I    -1.7   -7.8    4.0
N     8.3   -1.3   -3.2
C    -4.3    6.3   -4.7
I    -2.6   -7.8   -3.7
I    -8.7    2.7   -0.0
C     4.7   -7.8   -0.2
H     0.2    3.8    8.3
H    -5.2   -3.8   -6.5
H    -8.9    0.4   -2.1
H     8.2   -0.8   -4.1
H     2.9   -8.7   -0.1
N    -5.3   -4.7   -5.9
C     4.7    6.3   -4.7
H     1.2    3.5   -8.5
I    -6.2   -1.2   -6.8
H     3.9    5.4   -6.4
P    -4.4    8.2    0.0
H     9.0    0.4   -2.1
H     3.8   -5.5   -6.4
H     0.5    2.2    9.0
I    -4.2    2.6    7.9
H     7.9   -4.7    1.5
P    -9.0    0.9    2.6
H    -0.4    8.7   -3.4
N     3.7    6.3   -5.9
P     4.6    8.2    0.0
P     9.0    0.9    2.6
H     8.0   -4.0    3.0
P    -4.4   -6.5    5.2
I    -4.5    3.1   -7.7
I     4.5    3.1   -7.7
I     2.7   -1.4    9.0
H     8.5   -2.2   -3.4
P     4.6   -6.5    5.2
H    -4.5    7.3   -4.2
H    -1.1    2.9   -9.0
H     4.5    7.3   -4.2
H    -7.8    5.2    1.8
I     1.9   -8.4   -4.1
H    -6.3   -4.7   -5.5
H     9.4   -1.2   -1.4
I     4.8    2.6    7.9
I     9.3    2.7   -0.0
C     9.3   -0.6   -2.3
I     7.2   -0.3   -6.4
I    -1.7   -0.9    9.5
I    -2.4    6.6    6.8
N     3.9   -9.0   -0.1
I     2.8   -8.7    3.7
H    -5.1    5.4   -6.4
C    -8.2   -4.9    2.4
I     7.2    6.6   -1.0
H     0.5    9.8   -1.4
N     8.3   -4.8    2.4
H    -7.8   -5.0    3.4
H    -5.1   -5.5   -6.4
H     5.8   -8.1   -0.2
H    -7.9   -5.8    1.8
H     5.7    6.3   -5.1
H     8.0    5.3    2.8
I     2.0    9.7    1.1
N    -5.2    6.3   -5.9
I    -2.7   -4.0   -8.9
H     7.9   -5.6    2.8
H    -1.5    9.7   -2.7
N    -0.6    9.7   -3.2
N    -9.7   -1.3   -3.2
H    -9.4   -2.2   -3.4
H     8.0    6.3    1.5
H     4.1   -9.4    0.8
P    -8.9    4.6   -2.6
N    -5.1   -9.0   -0.1
H    -7.7    5.9    3.4
I     6.5   -4.4    6.8
I    -8.8   -0.9    5.3
H     3.8    7.1   -6.5
C    -8.1    6.0    2.4
H    -6.2    6.3   -5.5
P    -0.0  -10.1    2.6
H    -0.8   -8.3    6.4
I     0.2   -0.7  -10.5
H     4.0    8.8    4.0
P     9.1    4.6   -2.6
H    -7.7    6.9    2.0
H     4.1   -9.7   -0.8
H    -1.1   -7.4   -7.5
I     1.8   -4.7   -9.3
C     0.4   10.3   -2.3
I     9.1   -0.9    5.3
H     4.0   -1.9   -9.6
H    -9.8   -0.8   -4.1
H    -6.1   -8.7   -0.1
H    -4.9   -9.4    0.8
I    -7.0   -5.0    6.3
N     8.4    6.2    2.4
H    10.3   -0.6   -2.9
I     6.4   -7.8   -3.7
H    -0.0  -10.5   -2.1
H     8.3    2.7    6.4
H     1.4   10.3   -2.9
I    -2.6   10.4    1.6
H    -7.8    2.5   -7.0
H    -4.5    0.5   -9.9
H    -4.9   -9.7   -0.8
H     4.5    0.5   -9.9
H    -5.1    7.1   -6.5
H    -5.0    8.8    4.0
H    -4.4   -3.9    9.2
H     0.1   -7.1    8.3
H     7.5    2.2    7.7
H    -4.9   -1.9   -9.6
I    -6.2   -1.4    9.0
H   -10.6   -1.3   -2.7
H    -0.7   10.2   -4.1
H     2.9   -1.2  -10.6
N    -9.6   -4.8    2.4
H     1.1   -8.5   -7.0
H     4.6   -3.9    9.2
I    10.9   -1.2    1.1
H    -7.6    2.8    7.6
H     8.1    7.0    3.0
I    -6.9    5.9    6.3
H     7.9    1.9   -7.6
H    -3.2   -0.6  -10.6
H   -10.0   -4.0    3.0
H   -10.0   -4.7    1.5
H    10.2   -4.0    2.0
I    -8.9   -4.3   -5.1
H     8.6    1.2    7.0
P     0.2    8.0    7.9
C     9.8   -4.9    2.4
H     1.3   -8.2    7.6
H     2.9    9.7    4.9
I     9.0   -4.3   -5.1
I    -6.2   -8.7    3.7
I    -4.2   10.1   -2.6
P    -8.9   -6.4   -2.6
N     8.4    2.2    7.3
N     3.9   -1.5  -10.5
H     1.1   -7.4   -8.5
P     9.0   -6.4   -2.6
P    -4.4    0.7   10.5
N     3.8    9.7    4.6
I     0.2   10.1    5.3
I     7.2   -7.8    4.0
I     1.9    6.3   -9.3
N    -0.7   -8.8    7.3
P     4.6    0.7   10.5
I     6.6    6.6    6.8
H     8.0    3.6   -7.5
I     4.8   10.1   -2.6
N    -0.8   -8.2   -8.0
P     0.0    8.4   -7.9
C     0.4   -8.2    8.1
I     0.3   -4.8   10.4
C    -4.2   -0.2  -10.7
H    10.1    5.2    1.8
H     4.3    4.7    9.6
I     6.2   -4.0   -8.9
H     0.1   11.4   -2.1
H    -3.2    9.8    5.3
I    -2.7    7.0   -8.9
C     0.7   -8.3   -8.0
N    -9.6    6.2    2.4
H   -10.0    5.3    2.8
I   -10.8   -4.3   -1.0
H    -3.1   -4.7   10.3
C     4.7   -0.2  -10.7
H    -4.7    4.7    9.6
H    -9.3    1.2    7.0
H    10.1   -5.8    1.8
I   -11.6   -0.6    1.6
H    -4.3    8.9    6.4
I    -7.1   -8.4   -4.1
C    -8.2    2.6   -8.0
I   -10.6    3.1    4.0
N    -5.1   -1.5  -10.5
H    -1.6   -8.8    7.7
C     0.3  -11.6   -2.3
C     9.9    6.0    2.4
H    10.1   -5.0    3.4
C    -4.1   -4.3   10.2
H    -9.9    6.3    1.5
H    -7.9    1.7   -8.6
N     8.3    2.7   -8.0
H     4.6    8.9    6.4
H   -10.1   -5.6    2.8
N    -5.1    9.7    4.6
H    -9.7    2.7    6.4
H    -1.2   -9.1   -7.6
I     4.4   -7.9   -7.7
H     3.9   10.5    4.0
I    -2.7  -11.5    1.6
I    -4.5   -7.9   -7.7
I     2.0    2.2   11.6
I    10.9    2.5   -4.1
I     7.2   -0.9    9.5
H     3.0   -5.3   10.3
I    -1.9    3.2  -11.4
H    -0.9   -1.2   11.9
I    -7.0    9.7    1.1
H     1.2  -11.6   -2.9
H    -7.8    3.5   -8.5
H    -0.4   -9.8    7.0
I    -8.8   -8.3   -0.0
P     4.5   -9.9   -5.2
C    -4.2    9.8    5.7
P    -4.5   -9.9   -5.2
P     0.1   11.8    2.6
C    -8.5    2.8    8.1
I     0.4    6.1   10.4
C     4.8   -4.3   10.2
H     5.8   -0.6  -10.6
H    11.9    2.2   -0.1
H    -1.1   -8.1   -9.0
H     3.0    5.6   10.3
P     8.9   -2.6   -7.9
H     4.1   -2.1  -11.3
P    -8.8   -2.9    7.9
I    -8.9    6.6   -5.1
N    -9.6    2.2    7.3
H     4.2   -6.2    9.6
H     0.4  -12.1   -1.4
I    -4.3   -8.3    7.9
I     2.8    9.8   -6.8
P    -9.0   -2.6   -7.9
H    -6.1   -1.2  -10.6
C     4.8    9.8    5.7
H    10.2    5.9    3.4
I     6.4   10.4    1.6
H    -5.0   10.5    4.0
P    -4.5    4.8  -10.4
H     7.9    2.9   -9.0
P     4.5    4.8  -10.4
I     9.2   -8.3   -0.0
N     4.0    5.4   10.4
I     1.9  -12.2    1.1
I     9.1    6.6   -5.1
P     9.1   -2.9    7.9
H    -4.3    7.1    9.2
H    -4.4   -3.7   11.0
I     4.7   -8.3    7.9
H    -3.0    6.3   10.3
N     4.0   -5.6   10.4
H   -12.1    2.9   -0.2
H    -0.9  -11.7   -4.1
H    -4.8   -6.2    9.6
H    -9.9    7.0    3.0
H    -6.1    9.7    4.9
I   -11.5    3.1   -3.7
H    -4.5    0.2  -11.7
H     4.6   -3.7   11.0
H    -4.9   -2.1  -11.3
H     1.3   -0.6   12.4
I   -10.7   -0.3   -6.4
H     4.5    0.2  -11.7
H     7.4    9.7   -2.7
H     1.2   -2.4   12.3
I     2.6    2.7  -11.9
H     4.7    7.1    9.2
