         400
 sphere cut out from bulk 
I    -0.9    0.1    1.3
P    -0.9   -2.2   -1.0
P     1.6    2.1    0.2
I     1.6   -0.2   -2.1
I    -0.9    3.6   -1.2
H    -0.8    0.0    3.8
P    -3.3    2.0    0.2
I    -3.3   -0.2   -2.1
I     1.6   -3.7    0.3
I     4.1    0.1    1.3
P     4.0   -2.1   -1.1
N    -0.8    0.0    4.8
I     1.6    3.7    2.8
I    -3.4   -3.7    0.3
H     0.1   -0.5    5.1
H    -0.8   -4.7    2.1
H     0.1   -4.1    3.5
I    -0.8   -3.7   -3.8
H    -1.6   -0.6    5.1
H     0.0    1.9    5.1
H     3.5    0.8    4.2
H     0.3    4.6   -3.1
I     4.1    3.6   -1.1
H     2.3   -0.2   -5.1
H    -3.3    0.1   -4.5
C    -0.7   -4.6    3.1
H     0.9   -2.2   -5.1
H    -1.7   -4.1    3.5
C    -0.8    1.4    5.4
H    -1.8    1.9    5.1
I    -3.3    3.6    2.9
I    -5.8    0.1    1.3
H     2.4    3.9   -4.0
H     0.8    0.1   -6.0
H     3.5   -3.9    3.1
C     1.8   -0.4   -6.0
P    -5.8   -2.1   -1.1
H    -2.4    0.8   -5.8
I     1.7   -2.2    5.7
H    -0.0    5.4    3.4
N     1.5   -1.9   -5.9
N     0.6    5.0   -4.0
H    -2.6    4.2   -4.1
N    -3.3    0.2   -5.6
H     0.3    4.4   -4.8
C     4.0    1.3    5.0
H    -1.7    5.4    3.5
I     4.0   -3.6   -3.9
H    -0.9    1.3    6.5
H    -3.5    5.0   -2.7
H    -2.4   -1.6   -6.1
C     2.1    4.9   -4.1
H     3.4    2.1    5.4
H     2.4   -2.5   -5.8
I    -0.8    2.6   -6.3
P     6.5    2.0    0.2
H     2.5    5.5   -3.3
I     6.6   -0.2   -2.1
H    -4.9    1.6    4.6
I    -5.8    3.6   -1.1
I    -3.2   -2.3    5.7
H     5.0    1.6    4.6
H     3.3    5.8    2.1
C    -3.5    4.8   -3.8
N    -0.7   -6.0    3.7
N    -0.9    5.9    3.7
C     4.1   -4.7    3.6
H    -4.1    0.8   -5.8
H     1.0   -2.2   -6.8
C    -3.2   -1.0   -6.3
H     0.3    5.9   -4.1
H     2.3   -0.2   -6.9
H    -2.5   -5.3   -4.3
H     0.5   -6.0   -4.1
H     3.4   -0.1    6.4
H     3.5   -6.1    2.1
H     4.9   -5.2    1.7
H    -4.4    4.2   -4.1
H     0.1   -6.5    3.4
H    -5.0   -5.2    1.7
N     4.3    0.3    6.1
I     6.5   -3.7    0.3
H    -4.8   -4.3    3.9
H     4.9   -0.5    5.7
H    -4.1   -1.6   -6.1
H    -0.9    7.2    2.1
H    -1.5   -6.6    3.5
N     4.4   -5.7    2.5
H    -5.0   -0.5    5.7
H     3.6   -5.2    4.4
H    -0.7   -5.9    4.8
H     2.7   -6.4   -3.3
H    -6.4    0.8    4.2
H     2.5    5.3   -5.0
H     5.1   -4.3    3.9
H    -0.9    6.0    4.8
C    -5.9    1.3    5.0
H     4.8    5.5    2.8
I    -5.8   -3.6   -3.9
N     4.2    6.3    2.5
I     4.1    2.5   -6.3
H    -5.1    5.5    2.8
H     0.5   -7.3   -3.1
H     5.4    4.2   -4.1
H     6.6    0.1   -4.5
H    -4.2   -5.3   -4.3
C    -0.9    7.3    3.1
I     6.5    3.6    2.9
H    -6.4   -3.9    3.1
N     0.8   -7.0   -4.0
H    -3.2   -0.8   -7.4
N    -3.4   -5.9   -4.5
H    -3.4   -7.0   -2.7
C    -5.8   -4.7    3.6
H     5.8    0.8   -5.8
N    -5.6    0.3    6.1
N    -5.5   -5.7    2.5
I     1.5    8.2    0.3
N    -3.5    6.1   -4.5
H     4.7    6.7    1.7
H    -2.7    6.7   -4.3
H     4.8    0.8    6.9
C     2.3   -7.0   -4.1
I    -0.7   -8.4   -1.2
H     6.3    5.0   -2.7
H     5.7   -1.6   -6.1
P    -8.3    2.1    0.2
H    -5.1    0.8    6.9
I    -8.3   -0.2   -2.1
H    -4.9   -6.5    2.8
H    -0.0    7.9    3.5
H    -5.2    6.7    1.7
H     5.0   -6.5    2.8
N     6.6    0.2   -5.6
H    -6.4    2.1    5.4
I     1.5    2.3    8.2
H     2.6   -6.6   -5.0
H     3.4    6.8    4.4
H    -1.8    7.8    3.5
C     6.3    4.8   -3.8
C    -3.4   -7.2   -3.8
N    -5.7    6.3    2.5
H    -3.3   -6.0   -5.6
H    -3.5    5.9   -5.6
H     5.7   -5.3   -4.3
I     1.8   -8.2    2.8
I    -5.7    2.5   -6.3
I    -3.5    8.2    0.3
H     0.4   -7.6   -4.8
C     3.9    7.3    3.6
I     6.6   -2.3    5.7
H    -6.5    5.8    2.1
I    -8.2   -3.7    0.3
H    -4.4    6.6   -4.3
I    -0.9    8.2   -3.8
H    -6.4   -6.1    2.1
H    -2.5   -7.7   -4.1
I     9.0    0.1    1.3
H    -7.6   -0.2   -5.1
H    -6.5   -0.1    6.4
I    -0.6   -2.3   -8.9
I    -3.4    2.2    8.3
C     6.6   -1.0   -6.3
H    -6.3   -5.2    4.4
H    -7.4    3.9   -4.0
H     3.3    8.1    3.1
H     7.2    4.2   -4.1
I    -0.8   -5.9    7.2
P     9.0   -2.2   -1.0
I    -3.2   -8.3    2.9
H     2.6   -8.1   -4.0
P     1.7   -3.9    8.3
I     4.3   -8.3   -1.1
H     7.4    0.8   -5.8
I    -8.2    3.7    2.8
I    -0.9    6.1    7.2
H     5.5    6.6   -4.3
H    -4.3   -7.7   -4.1
I     9.0    3.6   -1.2
H    -7.4    5.5   -3.3
H     8.3   -0.6    5.1
H     8.1    1.9    5.1
P    -3.2   -3.9    8.3
H     7.5   -1.6   -6.1
H    -7.5   -2.5   -5.8
P    -1.0    9.7   -1.0
H     8.2   -4.1    3.5
H     9.1    0.0    3.8
N     6.5   -5.9   -4.5
N     6.3    6.1   -4.5
H     4.9    7.6    3.9
H     6.5   -7.0   -2.7
H    -5.0    7.6    3.9
P    -0.8    4.0   -9.1
I     3.9    8.4   -3.9
H     6.7   -0.8   -7.4
H     7.3   -5.3   -4.3
C    -5.9    7.3    3.6
P     1.8   -9.9    0.2
C    -7.7    4.9   -4.1
I    -5.6   -8.3   -1.1
C    -8.1   -0.4   -6.0
I     1.6    6.0   -8.0
I     1.8   -6.0   -8.0
I    -0.8   -2.5    9.8
H    -7.2   -6.4   -3.3
H    -7.5   -0.2   -6.9
I     4.2   -5.8    7.2
I     4.3   -2.2   -9.0
I    -8.2   -2.2    5.7
I     4.0    6.1    7.2
N     9.1    0.0    4.8
H    -6.5    6.8    4.4
P    -0.9    3.8    9.6
H     6.4    5.9   -5.6
I     6.3    8.2    0.3
P    -3.2   -9.9    0.2
H     5.6   -7.7   -4.1
H     8.2    5.4    3.5
C     6.5   -7.2   -3.8
H    -7.4    5.3   -5.0
N    -8.4   -1.9   -5.9
H     9.1   -4.7    2.1
H     6.5   -6.0   -5.6
I    -3.1   -6.0   -8.0
I    -3.3    5.9   -8.0
I     9.1   -3.7   -3.8
H    -9.0   -2.2   -5.1
P     3.9    9.8   -1.1
C     9.0    1.4    5.4
H     7.2    6.7   -4.3
C     9.1   -4.6    3.1
I     6.4    2.2    8.3
P     4.1    4.0   -9.1
I     4.2   -2.4    9.7
I    -5.6   -2.2   -9.0
I   -10.7    0.1    1.3
I     1.7    2.5  -10.4
H    -6.5    8.1    3.1
H    -9.1    0.1   -6.0
I    -5.7   -5.8    7.2
I    -6.0    8.4   -3.9
P   -10.7   -2.2   -1.0
H     0.7    9.7   -5.1
H    -7.2   -6.6   -5.0
P     3.9    3.8    9.6
I     6.7   -8.3    2.9
H    -9.6    4.6   -3.1
H    -9.8   -0.5    5.1
H    -9.7   -4.1    3.5
C    -7.6   -7.0   -4.1
P     1.8   -3.7  -10.3
I    -5.9    6.1    7.2
I    -3.3    2.4  -10.4
H     8.4   -6.6    3.5
H     9.0    1.3    6.5
H     9.9   -0.5    5.1
H     0.2  -10.0    5.1
N    -9.2    5.0   -4.0
I    -0.7   -9.3   -6.3
H    -9.8    1.9    5.1
H   -10.7    0.0    3.8
I     9.0    2.6   -6.3
H     9.9    1.9    5.1
H     2.2    9.5   -5.8
I     1.5    9.7    5.7
H    10.0   -4.1    3.5
P     6.6   -3.9    8.3
H    -1.6  -10.1    5.1
I   -10.8    3.6   -1.2
P    -3.1   -3.7  -10.3
H    -8.9   -2.2   -6.8
N     9.0    5.9    3.7
H     7.4   -7.7   -4.1
I    -5.7   -2.4    9.7
P    -5.8    4.0   -9.1
P    -6.0    9.8   -1.1
H    -7.3   -8.1   -4.0
H    10.2    4.6   -3.1
N     9.2   -6.0    3.7
H    -9.6    4.4   -4.8
I    11.4   -0.2   -2.1
P     1.5    8.0    8.3
H     8.9    7.2    2.1
I    -3.4    9.6    5.7
P    11.5    2.1    0.2
N   -10.7    0.0    4.8
N     1.3   10.0   -5.9
H     8.0    7.8    3.5
H     9.8    5.4    3.4
H     3.6   -9.8    5.4
I    -8.4    8.2    0.3
H    -3.3   -1.0   11.3
H    -9.9    5.4    3.4
H   -10.6   -4.7    2.1
H     9.0    6.0    4.8
I    -8.1   -8.2    2.8
H    -9.4   -6.0   -4.1
H     0.8    9.7   -6.8
I   -10.6   -3.7   -3.8
C    -0.7  -10.6    5.4
P    -5.9    3.8    9.6
I    -0.7  -11.8    1.3
I    -8.3    2.3    8.2
P     6.7   -9.9    0.2
H     9.2   -5.9    4.8
I     6.6    5.9   -8.0
I     1.4   11.7   -2.1
C     9.0    7.3    3.1
H    -9.6    5.9   -4.1
C   -10.6   -4.6    3.1
H    10.1    4.4   -4.8
H     2.2   -0.4   11.8
P    -3.4    8.0    8.3
I     6.7   -6.0   -8.0
C   -10.7    1.4    5.4
I    11.5   -3.7    0.3
P    -0.6   -8.0   -9.1
I     4.3   -9.4   -6.3
N    -9.1   -7.0   -4.0
H    10.8   -2.2   -5.1
I    -1.0   12.0    1.3
H     0.8   -2.4   11.9
H    -9.7   -6.5    3.4
H    -4.7  -10.3    4.6
I     1.5    5.7   10.7
H    -2.5   10.3   -6.1
H    10.7    0.1   -6.0
H    -0.7    1.5  -12.2
P    -8.2   -3.9    8.3
N    10.5    5.0   -4.0
H    -9.4   -7.3   -3.1
H     5.1  -10.3    4.6
I    -3.5   11.7   -2.1
I    11.5    3.7    2.8
H    10.0   -6.5    3.4
I     1.7   -6.2   10.7
I     1.7  -12.1   -2.1
I     9.2   -8.4   -1.2
H     3.6  -11.2    4.2
C     4.2  -10.6    5.0
H    -0.6  -11.9    3.8
H    -0.1   11.4    5.1
H    -0.7  -10.7    6.5
H    10.2    5.9   -4.1
I     6.6    2.4  -10.4
H    -1.8   11.3    5.1
I    -3.4    5.7   10.6
H   -11.5   -0.6    5.1
H    -1.0   12.0    3.8
I     4.3  -11.8    1.3
I    -5.6   -9.4   -6.3
P    -0.8   -8.2    9.6
H   -10.7    1.3    6.5
H    10.4   -6.0   -4.1
I    -1.0    2.4   12.4
H     0.7   -0.1   12.6
I   -10.7    2.6   -6.3
N   -10.6   -6.0    3.7
I     8.9    8.2   -3.8
H    -2.3  -11.1   -5.8
H     3.5    0.1  -12.2
H   -11.5   -4.1    3.5
I     3.9   12.1    1.3
I    -3.1  -12.2   -2.1
I    -3.3   -6.2   10.6
H    -4.3   10.3   -6.1
P    -8.1   -9.9    0.2
I    -0.6   -5.6  -11.4
P     4.2   -7.9   -9.1
I     1.7   -9.7    8.2
H   -11.6    1.9    5.1
C     1.6   -0.7   12.7
I    -8.1   -6.0   -8.0
H    -6.3   -9.8    5.4
H    -4.9    1.0  -11.8
C    -3.4   -1.2   12.3
H     4.9    1.0  -11.8
N   -10.7    5.9    3.7
N    -0.6  -11.9    4.8
I     6.5    9.6    5.7
P     6.8   -3.7  -10.3
N    -1.0   11.9    4.8
I    -8.2    6.0   -8.0
N    11.4   -1.9   -5.9
H     2.1   11.8   -5.1
H    -2.5   -1.8   12.6
N     1.4   -2.1   12.7
H    10.8   -2.2   -6.8
I     8.9    6.1    7.2
I     9.2   -2.3   -8.9
H    -9.4   -7.6   -4.8
I     9.1   -5.9    7.2
H   -10.6   -5.9    4.8
C     1.6   11.5   -6.0
H    10.3   -7.3   -3.1
H     6.5   -1.0   11.3
C    -5.7  -10.6    5.0
H    -3.1  -11.8   -4.5
C    -3.4   10.9   -6.3
