         400
 sphere cut out from bulk 
P     1.2    0.0    0.0
I    -1.2    2.1    0.4
I    -0.9   -2.3   -0.0
H    -2.0    0.2   -2.7
I     0.6    0.4   -3.3
I     1.6   -0.4    3.3
H    -1.9    0.3    3.1
H    -3.3    0.0   -1.7
H    -3.3    0.5    2.0
N    -3.0    0.3   -2.6
I     3.3    2.4   -0.0
I     3.6   -2.0   -0.6
H     1.1   -3.2   -2.5
H     1.2    3.2    2.5
C    -3.0    0.6    3.1
H    -3.2    1.4   -2.7
H     0.9    4.2   -1.6
H     1.4   -4.1    1.6
H     0.8    2.9   -3.7
H     1.4   -3.0    3.7
H    -3.2    1.5    3.5
H    -0.1   -4.4    2.5
H     0.8   -4.7   -1.6
C     1.0    4.3    2.5
C     1.3   -4.3   -2.5
H    -0.1    4.5    2.5
H    -3.6   -1.4    3.4
H    -3.5   -1.5   -3.5
C    -3.7   -0.4   -3.7
H     1.5    4.8    1.6
C     1.0   -4.6    2.5
N    -3.8   -0.5    3.8
H     4.1   -0.2   -3.5
C     1.3    4.6   -2.5
N     0.7    4.0   -3.7
P    -3.3   -4.4   -0.0
H    -0.4    4.1   -3.7
H     4.1   -0.3    3.7
P    -3.3    4.5   -0.0
H     2.4    4.4   -2.5
H     2.3   -4.5   -2.5
N     1.5   -4.0    3.7
I    -5.3   -2.0   -0.6
H    -3.4   -0.1   -4.6
H     5.6    0.0   -1.7
I    -2.9    4.0   -3.3
H    -3.5   -0.5    4.8
H     5.6    0.5    2.0
H    -4.8   -0.2   -3.5
H    -0.4   -4.8   -3.7
H    -4.8   -0.3    3.7
H     2.6   -4.1    3.7
I    -5.6    2.4   -0.0
N     0.6   -4.9   -3.7
H     1.2   -5.7    2.5
C     5.1   -0.4   -3.7
H     1.1    5.7   -2.5
N     1.6    4.9    3.7
I    -3.7   -4.0    3.2
H     1.1    4.4   -4.6
N     5.1   -0.5    3.8
H     1.1   -4.4    4.5
N     5.9    0.3   -2.6
H     5.7    1.4   -2.7
H     1.1    4.5    4.5
P     0.9   -0.2   -6.4
H     5.3   -1.4    3.4
H     1.0   -4.5   -4.6
I    -0.5    2.8    5.9
P     1.2    0.2    6.5
H     5.3   -1.5   -3.5
H     2.6    4.8    3.7
I    -0.9    6.6   -0.0
I    -3.0   -5.0   -3.3
C     5.9    0.6    3.1
I    -1.5   -1.6    6.4
H     5.7    1.5    3.5
I    -1.2   -6.8    0.4
I    -3.7    4.9    3.2
I    -1.8   -2.0   -6.5
H     0.8   -6.0   -3.7
P     5.6   -4.4   -0.0
I     2.7   -2.9   -5.9
H     1.4    5.9    3.7
H     5.5   -0.1   -4.6
P     5.6    4.5   -0.0
I     3.2   -6.5   -0.0
H     5.4   -0.5    4.8
I     5.2   -4.0    3.2
H     6.9    0.2   -2.7
I    -0.8    2.5   -7.0
I     3.6    1.6   -6.5
H     7.0    0.3    3.1
P    -7.7    0.0    0.0
I     3.9    2.0    6.4
I     3.6    6.9   -0.6
I     5.2    4.9    3.2
I     6.0    4.0   -3.3
I     3.0   -2.5    7.0
I    -7.3   -0.4    3.3
I     7.7    2.1    0.4
H    -6.5    4.4   -2.5
I     8.0   -2.3   -0.0
H    -6.5   -4.5   -2.5
I     5.9   -5.0   -3.3
I    -5.0    2.0    6.4
P    -3.2   -4.4    6.5
H    -6.3   -4.1    3.7
P    -3.5    4.2   -6.4
I    -0.6   -6.1    5.9
P    -3.2    4.6    6.5
I    -5.3    1.6   -6.5
I    -5.7   -6.5   -0.0
H    -3.2   -7.5   -2.7
H    -7.5   -4.1    1.6
H    -7.7    3.2    2.5
H    -6.3    4.8    3.7
P    -3.5   -4.7   -6.4
I    -5.3    6.9   -0.6
H    -3.2   -7.4    3.5
H    -3.1    0.3    8.3
H    -7.8   -3.2   -2.5
H    -7.5   -3.0    3.7
I     2.7    6.0   -5.9
I    -8.3    0.4   -3.3
H    -3.5    7.4   -3.5
P     1.2   -8.9    0.0
H    -3.5    7.5    3.4
H    -3.8   -0.8   -8.1
H    -7.4    4.8    1.6
P     1.2    8.9    0.0
I    -6.2   -2.9   -5.9
C    -7.6   -4.3   -2.5
N    -7.3   -4.0    3.7
I     0.6   -8.5   -3.3
H    -8.0    4.2   -1.6
C    -7.6    4.6   -2.5
H    -3.3   -8.4    2.0
I     1.6    8.5    3.3
C    -7.9    4.3    2.5
H    -8.1    2.9   -3.7
H    -2.0   -8.6    3.1
H    -2.0   -8.7   -2.7
H     0.8    4.1   -8.4
P     5.4    4.2   -6.4
C    -3.0   -8.4    3.1
H     1.4   -4.2    8.3
I    -5.9   -2.5    7.0
N    -3.0   -8.6   -2.6
H    -8.1   -4.7   -1.6
C    -7.9   -4.6    2.5
N    -7.3    4.9    3.7
I    -0.9   -6.4   -7.0
H     5.1   -0.8   -8.1
P     5.4   -4.7   -6.4
I    -1.7    6.9   -6.5
H    -3.4   -8.9   -1.7
P     5.7   -4.4    6.5
H    -3.3    8.9   -1.7
H     0.8   -4.8   -8.4
H    -1.9    9.1   -2.7
H     1.4    4.7    8.3
I     0.9    0.7    9.6
I     1.3   -0.7   -9.6
P     5.7    4.6    6.5
I    -1.4    7.3    6.4
H     5.4    7.5    3.4
H     1.1   -3.3   -9.2
H     5.7   -7.5   -2.7
H     5.4    7.4   -3.5
I     7.1   -2.0   -6.5
N    -8.2    4.0   -3.7
C    -3.4   -0.0    9.2
I     0.6    9.3   -3.3
H     1.2    3.3    9.2
H    -7.7   -5.7    2.5
H     3.8   -0.7   -9.1
H     5.7   -7.4    3.5
H    -1.9    9.2    3.1
I     3.0    6.4    7.0
I     7.4   -1.6    6.4
H    -3.2   -1.1    9.4
I     1.6   -9.3    3.3
N    -3.7    8.4    3.8
C    -3.7    8.5   -3.7
H    -7.8    5.7   -2.5
N    -4.1   -0.8   -9.1
H    -2.2   -0.0   -9.7
H    -7.8    4.5    4.5
H    -7.8   -4.4    4.5
H    -7.8    4.4   -4.6
I     9.5    0.4   -3.3
N    -3.0    9.2   -2.6
P    -7.7    0.2    6.5
I    -9.8   -2.3   -0.0
P    10.1    0.0    0.0
H    -3.5    1.2   -9.4
H     5.8    0.3    8.3
H     8.8   -4.4    2.5
H    -7.9   -4.5   -4.6
H     8.5    4.1   -3.7
H    -3.3    9.4    2.0
H     8.8    4.5    2.5
I     3.8   -6.9    6.4
N     1.0    4.3    9.2
H    -0.1   -4.4    9.2
H    -7.5    5.9    3.7
I     7.7   -6.8    0.4
H    -0.0    4.5    9.2
N     1.2   -4.4   -9.2
H     4.1    8.7   -3.5
H     4.2    8.6    3.7
H     5.6   -8.4    2.0
P    -8.0   -0.2   -6.4
N    -8.3   -4.9   -3.7
I   -10.1    2.1    0.4
H    -3.4    8.4    4.8
H    -9.0   -4.4    2.5
N     4.8   -0.8   -9.1
N     1.0   -4.6    9.2
H    -9.0    4.5    2.5
H     4.4    0.2    9.4
N     1.3    4.6   -9.2
H    -1.7    0.5   10.2
I     3.5   -7.3   -6.5
C    -2.9    9.5    3.1
I     8.0    6.6   -0.0
C    -3.3    0.2   -9.8
H    -3.9   -1.8   -9.4
H    -4.5    0.2    9.4
H     2.3    4.4   -9.2
H     8.5   -4.8   -3.7
H     2.3   -4.5   -9.2
I    -6.2    6.0   -5.9
H    -5.1   -0.7   -9.1
H    -4.7    8.6    3.7
H    -3.4    8.8   -4.6
H    -4.8    8.7   -3.5
H     4.0   -9.1   -3.5
N     5.2    8.4    3.8
H     5.5   -8.9   -1.7
C     5.2    8.5   -3.7
I     8.4    2.8    5.9
N    -2.7    0.7   10.3
C     5.9   -8.4    3.1
H    -3.4   -9.0   -4.6
H     5.6    8.9   -1.7
C    -3.8   -9.3   -3.7
N     5.9   -8.6   -2.6
H    -8.1   -6.0   -3.7
C     5.5   -0.0    9.2
H    -2.8    1.7   10.2
I    -5.1   -6.9    6.4
H     9.8    4.2   -1.6
H     4.1   -9.2    3.7
H    -9.2    4.1   -3.7
H    10.0   -3.2   -2.5
H     9.7    2.9   -3.7
H     1.1    5.6   -9.2
N    -3.8   -9.4    3.8
H     1.4   -2.9   10.3
H     5.0   -1.8   -9.4
H     0.9    2.9  -10.4
I    -2.6    4.3    9.6
H     1.1   -5.6    9.2
P     0.9    8.7   -6.4
H     5.4    1.2   -9.4
H    10.1    3.2    2.5
H    -4.9   -9.1   -3.5
P     1.1   -8.7    6.5
H     9.7   -4.7   -1.6
I     8.1    2.5   -7.0
I    -2.6   -4.6    9.6
I    10.5   -0.4    3.3
H     5.7   -1.1    9.4
N     9.6    4.0   -3.7
H    -4.8   -9.2    3.7
H    -3.1   10.3   -2.7
C     9.9    4.3    2.5
H    -9.3   -4.8   -3.7
H    -3.5   -9.4    4.8
I    -5.8    6.4    7.0
I    -1.1   11.1    0.4
I    -5.4   -7.3   -6.5
H     5.5    8.4    4.8
C     9.9   -4.6    2.5
P     0.8   -9.1   -6.4
H     5.6    9.4    2.0
C     0.7    4.0  -10.4
H   -10.9    0.2   -2.7
P     1.2    9.1    6.5
C     1.6   -3.9   10.4
C     5.1   -9.3   -3.7
H    -0.4    4.1  -10.4
H    10.3   -4.1    1.6
H   -10.8    0.3    3.1
I    -0.9  -11.2   -0.0
N     5.9    9.2   -2.6
C    10.2   -4.3   -2.5
C     5.6    0.2   -9.8
H    10.3   -3.0    3.7
I    -4.1   -4.4   -9.6
N     5.1   -9.4    3.8
N     9.5   -4.9   -3.7
I    -4.0    4.5   -9.6
H     5.5    8.8   -4.6
H     6.9   -8.7   -2.7
I    -9.4    2.8    5.9
H    -3.2   10.4    3.5
H    -3.6    0.2  -10.9
H     2.7   -4.1   10.4
I     3.5  -10.9   -0.6
C    10.2    4.6   -2.5
H     5.5   -9.0   -4.6
H    -0.4   -4.8  -10.4
H     6.9   -8.6    3.1
H    -3.6  -10.3    3.4
H    10.4    4.8    1.6
H    -3.6  -10.4   -3.5
C     0.6   -4.9  -10.4
C     5.9    9.5    3.1
H    -3.0    0.4   11.2
I     4.8   -4.4   -9.6
C     1.6    5.0   10.4
I    -7.3    8.5    3.3
P     9.8   -0.2   -6.4
I     4.9    4.5   -9.6
H     2.7    4.8   10.4
H     7.0    9.1   -2.7
N    10.4   -4.0    3.7
I    -9.8    6.6   -0.0
P    -7.7   -8.9    0.0
P    -7.7    8.9    0.0
H    10.0    5.7   -2.5
H     6.7   -0.0   -9.7
H    10.0    4.4   -4.6
H    10.1   -5.7    2.5
I     3.3   11.3   -0.0
H     5.4   -9.4    4.8
H    10.0   -4.4    4.5
H     9.9   -4.5   -4.6
I     8.3   -6.1    5.9
I     7.2    6.9   -6.5
H    10.0    4.5    4.5
H     9.7   -6.0   -3.7
P    10.1    0.2    6.5
H    -7.5   -4.2    8.3
H     6.1    1.7   10.2
H     7.0    9.2    3.1
H    -3.8    8.1   -8.1
N     6.2    0.7   10.3
H     0.8   -6.0  -10.4
H     1.4    6.1   10.3
H     5.8   10.3   -2.7
H     5.3    0.2  -10.9
H     5.3  -10.3    3.4
H    -6.6    4.4   -9.2
N    10.5    4.9    3.7
I    -5.3  -10.9   -0.6
I   -10.1   -6.8    0.4
H     1.2   -4.4   11.3
H    -7.5    4.7    8.3
N   -11.9    0.3   -2.6
H     5.3  -10.4   -3.5
H     1.2    4.4  -11.3
H    -6.6   -4.5   -9.2
H     1.1   -4.5  -11.3
I     7.5    7.3    6.4
H     1.2    4.6   11.3
I    -9.7    2.5   -7.0
I    -7.3   -9.3    3.3
I     6.3    4.3    9.6
I   -10.3   -1.6    6.4
C   -11.9    0.6    3.1
I    -7.6   -0.7   -9.6
H   -12.2    0.0   -1.7
H    -3.1   -8.6    8.3
H    -8.1    4.1   -8.4
H    11.2   -4.5   -2.5
I     6.3   -4.6    9.6
H   -12.2    0.5    2.0
I    -8.3   -8.5   -3.3
H    11.3    4.4   -2.5
I    12.1    2.4   -0.0
H     5.7   10.4    3.5
H   -12.1    1.4   -2.7
I    -1.5  -10.5    6.4
H     1.0  -12.1   -2.5
H     0.9   11.8   -3.7
H    -3.9    7.1   -9.4
I     8.0   -6.4   -7.0
H     1.2   12.2    2.5
H    10.3    5.9    3.7
H    -7.7    3.3    9.2
H     1.4  -11.9    3.7
H    -7.8   -3.3   -9.2
I    -8.0    0.7    9.6
H     7.2    0.5   10.2
H     5.1    8.1   -8.1
H    -3.2    7.8    9.4
