         400
 sphere cut out from bulk 
H     0.1   -2.1    0.2
I    -1.3   -1.0    1.9
H     0.5   -2.1   -1.4
N     0.8   -2.5   -0.5
H     1.7   -2.1   -0.2
H    -0.1    3.3    0.2
I    -0.2   -1.0   -3.5
H     0.9    3.3   -1.3
C     0.8    3.7   -0.3
H     1.6    3.4    0.3
H    -3.3    0.3   -2.0
I     3.8   -0.9    0.4
H     1.2    0.4    3.9
C     0.8   -4.0   -0.5
I    -3.1    3.0   -0.5
H    -0.1   -4.3   -0.8
H     1.0   -4.3    0.5
H     0.2   -1.7    4.2
P    -3.7    1.4    2.2
H    -2.7   -1.5   -3.4
H     1.6   -4.3   -1.1
C    -3.9    0.1   -2.9
H     4.1    0.3   -2.7
C     0.8    0.1    4.8
H    -0.2    0.5    4.9
H    -4.0   -1.9   -2.4
N    -3.7   -1.4   -3.2
I     2.8    3.1    3.1
N     0.8   -1.3    5.0
H    -3.6    0.7   -3.7
N     0.8    5.2   -0.3
I    -5.3   -0.9    0.4
P    -3.8   -3.1    2.3
I    -1.7    3.0    4.2
I     2.6    3.0   -3.7
H     1.8   -1.7    4.9
H     0.0    5.5   -1.0
I    -3.1   -4.7   -0.4
H    -5.0    0.3   -2.7
H     0.6    5.6    0.6
P     0.7    1.3   -5.6
H     1.6    5.6   -0.7
H     1.4    0.6    5.6
H     5.0   -1.9   -2.4
C     5.1    0.1   -2.9
P     5.3    1.4    2.2
H     5.7    0.3   -2.0
H    -4.3   -1.6   -4.1
H     0.4   -1.6    5.9
I    -1.9    2.9   -5.0
I     2.6   -4.7    3.0
N     5.3   -1.4   -3.2
I     4.5   -0.9    4.6
H     4.8   -1.6   -4.1
P     5.3   -3.1    2.3
I    -4.6   -0.9    4.6
I     2.9   -4.6   -3.8
H     5.5    0.7   -3.7
P     0.8   -3.1   -5.8
I     6.0    3.0   -0.5
I    -1.9   -4.9    4.1
P    -3.8    4.6   -3.1
P     0.8    4.7    5.0
I     3.2   -0.8   -6.1
I    -1.6   -5.0   -5.0
I     0.1    6.8    2.6
H     6.3   -1.5   -3.4
I    -1.4    6.8   -2.6
H     1.0    5.2   -5.3
I     6.0   -4.7   -0.4
H    -7.3   -2.1   -0.2
I    -6.3    3.1    3.1
P     5.2    4.6   -3.1
H    -4.0    0.4    6.6
I    -0.8   -0.9   -7.7
H    -2.9    2.6    6.8
H    -4.3    6.4    1.6
I     3.6    6.9   -1.3
H    -2.4    6.9    3.0
P    -3.7   -6.4   -3.0
I     7.7   -1.0    1.9
I    -6.4    3.0   -3.7
P     0.8   -6.3    4.9
H     4.7    6.4    1.6
H    -7.4    3.4    0.3
H    -2.8    0.4    7.8
I     1.4    3.0    7.6
H     5.1    0.4    6.6
I    -0.7   -0.9    8.3
N    -3.7    0.8    7.5
I    -6.4   -4.7    3.0
H    -3.5   -7.7    1.1
H    -3.0   -7.1    3.4
C     0.6    6.0   -6.0
I    -5.9   -0.8   -6.1
H    -0.5    5.9   -6.1
H     0.4    7.3   -4.4
I    -6.2   -4.6   -3.8
H    -2.8    0.4   -8.1
N    -8.2   -2.5   -0.5
H    -7.4   -4.3   -1.1
H    -3.5    7.8    1.1
H    -3.6    2.6   -7.4
C    -4.1    7.4    1.9
C    -3.7    2.3    7.5
N    -3.3    7.4    3.2
H    -7.8    0.4    3.9
H     4.3    2.6    7.1
H     4.0   -7.5    2.0
P     5.3   -6.4   -3.0
H    -8.5   -2.1   -1.4
H    -8.1    3.3   -1.3
I    -5.4    6.9   -1.3
H    -4.4    0.4   -7.7
H    -3.9    7.0    3.9
H    -4.7    2.6    7.1
H    -7.3   -1.7    4.9
I     1.4    3.0   -8.3
I     7.3    3.0    4.2
I     1.5   -4.7    7.5
H     4.6    0.4   -7.7
C    -8.2    3.7   -0.3
H    -3.6   -5.0    6.6
N     0.9    7.3   -5.3
I     0.1   -8.7    2.6
C     5.0    7.4    1.9
C    -8.2   -4.0   -0.5
H    -8.0   -4.3    0.5
I     7.1    2.9   -5.0
H     4.0    8.0    2.0
H    -8.9   -2.1    0.2
I    -1.4   -8.7   -2.6
N    -3.7    0.7   -8.4
H     1.9    7.4   -5.1
N     5.3    0.8    7.5
H    -5.0   -7.5    2.0
H     1.1    6.0   -6.9
C    -4.1   -8.1    1.9
H    -7.4    5.6   -0.7
H     0.3   -8.2   -4.4
N    -3.3   -8.1    3.2
H    -4.4    0.4    8.2
H     9.1   -2.1    0.2
I     3.6   -8.6   -1.3
H     0.5   -7.4   -5.8
H     4.6    0.4    8.2
I     3.2    7.0    5.5
C     5.3    2.3    7.5
H    -2.4   -8.6    3.0
H    -7.6    0.6    5.6
H     8.9    3.3    0.2
C    -3.7    2.2   -8.4
H     5.6   -7.7    1.1
H    -3.0    8.4    3.4
H     6.1    2.6    6.8
H     5.2    7.0    3.9
C    -8.2    0.1    4.8
I     7.1   -4.9    4.1
H     5.5    2.6   -7.4
H    -3.6    2.7    8.5
I     8.9   -1.0   -3.5
H    -2.9   -5.0   -7.7
H    -5.0    8.0    2.0
C     4.9   -8.1    1.9
H     5.6    7.8    1.1
I    -0.8    7.0    6.7
N    -8.2   -1.3    5.0
H     1.9   -8.1   -5.1
H    -9.2    3.3    0.2
N    -8.3    5.2   -0.3
N     0.8   -8.2   -5.3
I     1.5   -4.8   -8.4
I     4.4    7.0   -5.4
N     5.7    7.4    3.2
I    -9.2   -1.0   -3.5
H     9.6   -2.1   -1.4
H    -8.8   -1.7    4.2
H    -2.9    2.6   -9.1
H     5.4   -5.0    6.6
I    -4.6    7.0   -5.4
H     6.0   -7.1    3.4
H     8.9   -4.3   -0.8
H     0.6   -9.9    0.6
N     5.3    0.7   -8.4
H     6.2    0.4    7.8
H     0.5    8.1   -5.8
H     6.6    6.9    3.0
H    -0.0  -10.0   -1.0
C    -3.7   -5.3    7.7
H    -2.8   -5.0    8.3
H     1.6   -9.9   -0.7
H     8.8    0.5    4.9
P    -8.3    1.3   -5.6
N     9.8   -2.5   -0.5
H    -3.9   -8.5    3.9
H    -4.0    0.3   -9.3
H    -8.5    5.6    0.6
H     4.3    2.6   -8.8
H    -9.2   -4.3   -0.8
H     0.4   -1.6  -10.0
C     5.3    2.2   -8.4
I     7.4   -5.0   -5.0
H    -4.4   -9.1    1.6
H     6.2    0.4   -8.1
H     4.4   -5.0   -7.8
P    -3.7    9.1   -3.0
I    -5.5   -8.6   -1.3
H     9.3   -1.7    4.2
H    -4.7    2.6   -8.8
I     3.2   -0.8    9.8
N     0.7  -10.3   -0.3
H    -4.7   -5.0   -7.8
H     4.7   -9.1    1.6
H     1.4    0.5  -10.3
P     0.8    9.1    4.9
N     5.7   -8.1    3.2
P     0.7    1.4   10.3
H     5.5    2.7    8.5
H     4.4   -4.9    8.1
C     9.8    3.7   -0.3
H    -9.2    0.5    4.9
C    -3.7   -5.4   -8.3
I     7.6    6.8   -2.6
P    -8.2   -3.1   -5.8
H     9.9    3.3   -1.3
I   -10.3   -1.0    1.9
H    -4.6   -4.9    8.1
H    -8.6   -1.6    5.9
P     0.9   -3.1   10.1
H     5.1    0.3   -9.3
H    -9.0    5.5   -1.0
I     3.2   -8.5    5.5
H     9.0    5.5   -1.0
C     9.9   -4.0   -0.5
I    -5.8    7.0    5.5
P    -8.2    4.7    5.0
H     5.1   -8.5    3.9
H    -2.8   -7.2    7.4
C     5.3   -5.3    7.7
H     6.0    8.4    3.4
I    -0.9   -8.5    6.7
N    -3.7   -6.8    7.7
H     1.1    6.1    9.0
H    10.7   -2.1   -0.2
H    10.0   -4.3    0.5
H    -8.0    5.2   -5.3
H    10.3    0.4    3.9
C     9.8    0.1    4.8
P     5.4    9.1   -3.0
H    -0.2    0.5  -11.0
H    -3.9   -7.2   -7.3
I     4.4   -8.5   -5.4
H    -4.5   -7.2    7.1
H     6.2   -5.0   -7.7
N     9.8    5.2   -0.3
H     4.6   -7.2    7.1
N     0.8   -1.4  -11.0
I    -4.6   -8.5   -5.4
N     9.8   -1.3    5.0
C     0.8    0.1  -11.1
H     9.6    5.6    0.6
H    -3.6   -5.0   -9.3
H    -0.1   11.1   -0.8
C     5.3   -5.4   -8.3
I    -7.6    3.0    7.6
H    10.7    3.4    0.3
C     0.6   -9.5   -6.0
H     1.0   11.2    0.5
H     9.4   -1.6    5.9
I    -3.0   10.8   -0.4
H     6.1    2.6   -9.1
H     6.6   -8.6    3.0
H     1.8   -1.7  -11.0
I     8.3   -0.9   -7.7
P     9.8    1.3   -5.6
N    -3.7   -6.8   -8.2
H     1.6   11.2   -1.1
H    -0.5   -9.6   -6.1
H    -2.8    8.3    7.4
I    -5.8   -0.8    9.8
H     6.2   -5.0    8.3
I    -1.9    3.0   10.9
P    -8.2   -6.3    4.9
H     5.1   -7.2   -7.3
H    -0.4    5.9    9.8
I    -1.9   10.6    4.1
I    -8.9    6.8    2.6
I     2.7   10.8    3.0
H    -7.2    7.4   -5.1
N     5.3   -6.8    7.7
H    10.7   -4.3   -1.1
C     0.8   11.5   -0.5
I    -0.9    6.9   -9.2
H    -2.8   -7.3   -8.6
I    -7.5   -4.7    7.5
H     1.0  -10.3   -5.3
I    -7.6    3.0   -8.3
C     0.6    6.1   10.0
H    -3.9    8.3   -7.3
I    -5.9   -8.5    5.5
I     9.2    6.8    2.6
I     8.3   -0.9    8.3
I    -1.6   10.5   -5.0
H    -4.5    8.3    7.1
H     1.1   -9.5   -6.9
H     4.6    8.3    7.1
H     5.4   -5.0   -9.3
C     0.8  -11.8   -0.3
I     7.6   -8.7   -2.6
H     1.0    5.3   10.6
P     0.8    4.6  -10.9
H     0.2   -1.8  -11.7
P     9.9   -3.1   -5.8
H    -3.9   -7.2    8.6
I     2.9   10.9   -3.8
H    10.5    0.6    5.6
I   -10.8    3.0    4.2
P    -3.8  -10.8   -3.1
H    -7.2   -8.1   -5.1
C    -8.4    6.0   -6.0
N     5.3   -6.8   -8.2
P     0.8  -10.8    5.0
H    10.8   -1.7    4.9
P     9.9    4.7    5.0
H     6.2   -7.2    7.4
H    10.7    5.6   -0.7
H     8.6    5.9   -6.1
I    -1.6   -4.9   10.9
H    -7.9    6.0   -6.9
H     1.2    0.4  -12.1
H    -8.7    7.3   -4.4
H     5.1    8.3   -7.3
N    -3.7    8.7    7.7
N    -8.2    7.3   -5.3
H    -0.2  -12.2    0.2
H    -2.8    8.2   -8.6
I     4.4   -0.9  -11.3
I    -1.7    2.9  -11.8
H     1.6  -12.1    0.3
I    -4.6   -0.9  -11.3
I    -7.6   -4.8   -8.4
H    -4.5   -7.2   -8.9
H   -11.7   -1.5   -3.4
H     4.5   -7.2   -8.9
H     0.9  -12.2   -1.3
H     5.1   -7.2    8.6
I     6.0   10.8   -0.4
I   -11.0    2.9   -5.0
H    -7.4   -9.9   -0.7
P     5.2  -10.8   -3.1
I    -9.8   -0.9   -7.7
I    -0.1   -1.0   12.4
I   -12.1    3.0   -0.5
H   -12.3    0.3   -2.0
H     0.5   -7.3   10.1
H    10.0    5.2   -5.3
N    -3.7    8.6   -8.2
I    11.6    3.0   -3.7
I    11.8    3.1    3.1
H    -3.9    8.3    8.6
I    -0.9   -8.6   -9.2
I     8.2    7.0    6.7
H     9.4    7.3   -4.4
P     9.8   -6.3    4.9
I   -10.4    6.8   -2.6
H    -4.3   -1.5   11.9
H    -8.7   -8.2   -4.4
H     6.2    8.3    7.4
H    -3.5    0.7   12.2
N    -8.2   -8.2   -5.3
I   -11.0   -4.9    4.1
I    -8.9   -8.7    2.6
H    -8.6   -7.4   -5.8
H    -9.5    5.9   -6.1
N     5.3    8.7    7.7
I   -10.7   -5.0   -5.0
P     0.8   -6.4  -11.1
H    -7.6    0.5  -10.3
H     6.2   -7.3   -8.6
I    12.8   -0.9    0.4
I    -9.8   -0.9    8.3
I     2.6    3.1   12.2
C     9.6    6.0   -6.0
I    -3.1  -12.5   -0.5
I     9.1   -8.7    2.6
H     4.8   -1.5   11.9
I    -6.4   10.8    3.0
H    -4.5    8.3   -8.9
I     3.2    6.9  -10.4
H    -2.7   -1.5   12.5
I    11.7   -4.7    3.0
I    -2.0   -5.0  -11.8
H     4.6    8.3   -8.9
H    -3.6   10.5    6.6
N     0.9    7.4   10.6
I   -12.1   -4.7   -0.4
H     0.5    8.2   10.1
P   -12.7    1.4    2.2
H     5.1    8.3    8.6
N     0.8   13.0   -0.5
