         400
 sphere cut out from bulk 
P     0.3    0.1    0.6
I    -0.6   -2.2   -1.5
I    -1.0    2.0   -1.5
I     2.9    0.2   -1.4
I    -2.1   -0.1    2.6
P     0.5    0.0   -3.6
I     1.7   -1.9    2.7
I     1.4    2.2    2.7
H    -3.2   -2.8   -0.4
H    -3.9   -1.3    1.5
H     4.3   -1.2    0.2
H    -0.3    4.7   -0.2
H     3.9   -2.1    1.6
H    -3.3    2.6   -2.3
P     0.3    0.1    4.8
H     0.2   -4.4   -2.2
H     0.7    4.5    2.0
N    -4.6   -1.8    0.9
C    -4.0   -3.1    0.3
H    -5.0   -1.2    0.2
N     4.7   -1.8    0.9
H    -3.6   -3.7    1.2
H     4.4    2.0   -2.3
H     1.4    5.2   -0.2
C     0.4    5.4    0.1
N     0.3    5.4    1.6
N    -4.2    2.7   -2.7
H    -4.9    2.0   -2.3
H     5.4   -1.3    1.5
H     4.5   -3.6   -0.2
H    -0.6    5.6    2.0
H    -5.4   -2.1    1.6
N     0.5   -5.4   -2.6
H     0.9   -4.5    3.8
H    -4.1    1.7    4.0
H    -4.8   -3.6   -0.2
I    -2.0   -0.2   -5.7
C     5.3   -3.1    0.3
H     1.4   -5.5   -2.2
H    -4.0    1.7   -4.5
H    -4.5    3.7   -2.3
I     1.5    2.2   -5.7
I     1.9   -2.0   -5.7
N     5.1    2.7   -2.7
H     4.0    3.0    4.0
H     4.8    3.7   -2.3
H    -3.6    3.4    4.1
H     0.1    6.4   -0.2
H    -0.2   -6.1   -2.2
C    -4.2    2.7   -4.2
H     1.2   -4.7   -4.4
H     1.0    6.2    2.0
I    -6.4    0.2   -1.4
H    -3.5    3.5   -4.5
H     6.1   -2.8   -0.4
C    -4.3    2.7    4.4
C     0.5   -5.4   -4.1
H    -0.5   -5.1   -4.5
H     4.1    3.0   -4.5
H     5.2    1.7    4.0
H     5.7   -3.7    1.2
H     6.0    2.6   -2.3
H    -1.2   -5.3    4.4
C     0.9   -5.3    4.5
C     5.1    2.7   -4.2
C     5.0    2.7    4.4
H    -0.6   -4.3    5.7
H     5.4    1.7   -4.5
I    -3.0    6.0    2.7
I    -0.8   -2.1    6.9
I    -3.1   -6.0    2.8
I     4.0    5.9   -1.5
I    -1.1    2.0    6.9
I     3.8   -6.1   -1.5
H    -5.3    3.0    4.0
N    -0.5   -5.2    5.2
I     2.7    0.2    6.9
H    -5.2    3.0   -4.5
H    -3.4    2.5    6.3
H     1.0   -6.3    4.1
H     1.6   -5.2    5.3
H    -3.6   -2.0   -6.5
I     7.2   -0.1    2.6
N    -4.4    2.7    5.9
H     0.8   -6.4   -4.4
H     5.7    3.4    4.1
P     0.5    0.0   -7.8
H     4.3    1.9    6.2
H     0.8    4.5   -6.4
I    -5.3    5.9   -1.5
H     4.2   -2.5   -6.4
H     5.8    3.5   -4.5
N     5.0    2.7    5.9
I    -1.7   -7.9   -1.5
H    -5.0    1.9    6.2
I    -7.6   -1.9    2.7
H    -3.9   -3.6   -6.4
I    -5.6   -6.1   -1.5
H    -0.7   -6.0    5.8
N    -4.2   -2.7   -6.8
H    -0.5    5.6   -6.4
H     4.6    3.6    6.3
H    -5.1   -2.5   -6.4
H    -4.7    3.6    6.3
I    -1.8    8.3   -1.5
I    -7.9    2.2    2.7
N     0.5    5.4   -6.8
I    -3.1   -5.9   -5.7
I     8.4    2.0   -1.5
I     2.6    7.9    2.7
I    -2.8    6.1   -5.7
H     5.8   -2.0   -6.5
N     5.1   -2.7   -6.8
H     1.1    6.1   -6.4
H     5.9    2.5    6.3
P    -9.0    0.1    0.6
P     0.3   -0.0    9.0
I     6.2   -6.0    2.8
I     2.7   -8.3    2.7
I     8.7   -2.2   -1.5
P    -4.2   -8.1    0.6
I     6.4    6.0    2.7
P    -4.3    8.1    0.6
H     5.4   -3.6   -6.4
I     7.3   -0.2   -5.7
H    -3.4   -3.0    8.1
H    -0.5    4.7    8.2
H    -7.9    5.2   -0.2
P     5.1    8.1    0.6
H     4.6   -1.7    8.2
H    -4.7   -1.7    8.2
P    -8.9    0.0   -3.6
I    -6.6    0.2    6.9
I    -7.5   -2.0   -5.7
P     5.1   -8.1    0.6
P     9.6    0.1    0.6
C    -4.2   -2.7   -8.3
H    -3.2   -3.0   -8.7
H     1.3    5.1    8.2
H     0.2   -9.7   -0.2
P    -4.1   -8.1   -3.6
H     4.2   -3.5    8.2
P    -4.2    8.1   -3.6
H    -0.3    4.7   -8.7
H    -7.9   -5.5   -2.2
I     3.9    5.9    6.9
H    -4.5   -1.7   -8.7
I    -7.8    2.2   -5.7
C     0.5    5.4   -8.3
H    -8.6    4.5    2.0
I     3.8   -6.1    6.9
C    -4.4   -2.7    8.5
H     4.8   -1.7   -8.7
I     2.7    7.9   -5.7
C     0.3    5.4    8.5
C     5.1   -2.7   -8.3
I    -0.9    2.1   -9.9
H     9.0    4.7   -0.2
H     1.5    5.1   -8.6
C     4.9   -2.7    8.5
I    -0.6   -2.1  -10.0
P    -9.0    0.1    4.8
P     5.1    8.1   -3.6
P     5.2   -8.1   -3.6
H    -8.4   -4.5    3.8
I     6.2   -5.9   -5.7
I    -9.9   -2.2   -1.5
H     1.0  -10.0    2.0
H     4.3   -3.4   -8.6
H    -5.2   -3.5    8.2
I     2.9    0.2   -9.9
H    -8.1   -4.7   -4.4
H    -0.2   10.1   -2.2
P    -4.4    8.0    4.8
I     2.8   -8.3   -5.7
H    -9.1   -4.4   -2.2
P    -4.3   -8.2    4.8
P     9.8    0.0   -3.6
H     0.1    6.4    8.2
C    -8.9    5.4    0.1
H     5.9   -3.0    8.1
H     8.7    5.6    2.0
H    -5.0   -3.4   -8.6
I     6.5    6.1   -5.7
H    -8.3    6.2    2.0
I   -10.3    2.0   -1.5
P     5.0    8.0    4.8
I    -5.4    5.9    6.9
N    -9.0    5.4    1.6
H     8.1   -5.3    4.4
N    -8.8   -5.4   -2.6
H     9.5   -4.4   -2.2
H    -7.7   -5.2    5.3
I    -6.7    7.9    2.7
H    -9.6    4.7   -0.2
H     0.9    9.9    4.1
I    -1.8   -8.0    6.9
I    -5.5   -6.1    6.9
C     0.5  -10.7    0.1
P     5.0   -8.2    4.8
P     9.6    0.1    4.8
H     0.7    9.8   -4.4
H     0.2    6.5   -8.6
H    -0.5  -10.6    2.0
I     3.7   10.1   -1.5
N     0.4  -10.7    1.6
I    -1.9    8.2    6.9
I    -2.9  -10.2    2.7
I    -6.6   -8.3    2.7
H     1.4   10.6   -2.2
I     8.3    2.0    6.9
C    -8.5   -5.3    4.5
H     6.1   -3.0   -8.7
I     7.6   -7.9   -1.5
I    -3.1   10.2    2.8
H     1.5  -11.0   -0.2
C    -8.8   -5.4   -4.1
C     9.7    5.4    0.1
N     0.4   10.8   -2.6
I     8.5   -2.1    6.9
H     8.8   -5.1   -4.5
H    10.0    4.5    2.0
I     4.1  -10.3   -1.5
H    -3.7   -2.0   10.4
N     9.7    5.4    1.6
H     9.2   -6.1   -2.2
H    -8.3   -6.3    4.1
H    -9.2    6.4   -0.2
N    -4.4   -2.7   10.0
H     8.7   -4.3    5.7
I     7.5    8.3   -1.5
I    10.7    2.2    2.7
I    -2.1   -0.2   11.1
H     0.6    4.4   10.4
H    -3.2    2.5  -10.5
N     0.3    5.4   10.0
H     9.4    6.4   -0.2
H     4.0   -2.6   10.4
I     1.3    2.2   11.1
I     1.7   -2.0   11.1
N     8.8   -5.2    5.2
N     9.8   -5.4   -2.6
H    -9.5   -6.1   -2.2
N     4.9   -2.7   10.0
I    11.0   -1.9    2.7
H    -0.2  -11.5   -0.2
H    -8.5   -6.4   -4.4
C     0.4   10.8   -4.1
H    -9.9    5.6    2.0
H    -8.5    4.5   -6.4
I    -5.2  -10.3   -1.5
I    -5.6   10.1   -1.5
H     4.5    2.0  -10.6
H    -4.0   -3.7   10.4
I   -11.4   -0.1    2.6
H    -0.8   10.2    5.8
H    -4.8    2.0  -10.6
I    -6.6    7.9   -5.7
I    -6.4    0.2   -9.9
C     0.8   10.9    4.5
H    -0.7    5.6   10.4
P    -8.9    0.0   -7.8
H    -1.3   10.9    4.4
H    10.3   -4.5    3.8
H     0.8  -11.7    2.0
I    -2.7  -10.1   -5.7
H    10.7    5.2   -0.2
H    -9.8   -5.1   -4.5
C     9.8   -5.4   -4.1
P    -4.1   -8.1   -7.8
H     5.6   -2.0   10.4
H    -0.6   11.1   -4.5
H    -0.4   -4.3  -11.1
H     0.1   11.7   -2.2
H    -5.3   -2.6   10.4
H     1.2  -10.0   -6.4
I    -6.5   -8.3   -5.7
P    -4.2    8.1   -7.8
N    -4.2    2.7  -10.9
P     0.5    0.1  -12.0
H    -4.5    3.6  -10.5
H     8.6   -6.0    5.8
H    -8.2    6.1   -6.4
H     0.9    6.1   10.4
N    -0.6   10.9    5.2
H     4.8    3.6  -10.5
H    10.3    6.2    2.0
I     4.1    5.9   -9.9
I    -3.2   10.3   -5.7
H     5.3   -3.7   10.4
H    -9.9   -4.3    5.7
I     6.2   10.2    2.8
N    -9.8   -5.2    5.2
H     8.8    5.6   -6.4
I     4.0   -6.1   -9.9
H     0.9   11.6    3.8
I    12.2    0.2   -1.4
H    10.8   -5.5   -2.2
H     1.5   11.0    5.3
C    10.2   -5.3    4.5
I     6.4  -10.2    2.7
P     5.2   -8.1   -7.8
P     5.1    8.1   -7.8
H    10.6   -4.7   -4.4
N     5.1    2.7  -10.9
H    -0.4  -10.6   -6.4
H     1.2   11.5   -4.4
N    -8.9    5.4   -6.8
I   -10.1   -2.1    6.9
I    10.8    2.2   -5.7
H     6.1    2.5  -10.5
P     9.8    0.0   -7.8
H    -0.5   -6.0  -11.0
H    -8.0    5.1    8.2
H   -10.6   -5.3    4.4
I    -5.3    5.9   -9.9
I   -10.4    2.0    6.9
I   -11.3   -0.2   -5.7
I    11.2   -2.0   -5.7
H     1.8   -5.1  -11.5
H    10.3   -6.3    4.1
N     0.5  -10.8   -6.8
H    10.1   -6.4   -4.4
H     0.2   -9.7    8.2
H    -7.8    5.1   -8.6
P    -9.0   -0.0    9.0
N    -0.3   -5.2  -11.7
I     3.7   10.1    6.9
H    10.1    4.5   -6.4
I    -5.4   -6.1   -9.9
I    -1.6   -8.0   -9.9
H   -12.5   -2.8   -0.4
P    -4.3   -8.1    9.0
P    -4.4    8.1    9.0
H     8.9    4.7    8.2
I     7.5   -8.0    6.9
I    -1.7    8.2   -9.9
H     0.3   -9.7   -8.6
H    -9.8    5.6   -6.4
H   -10.0   -6.0    5.8
I     7.4    8.2    6.9
I    -3.3   -5.9   11.2
H   -12.6    2.6   -2.3
I    -3.0    6.1   11.1
I     4.0  -10.3    6.9
N     9.8    5.4   -6.8
H    -3.7   12.5    1.2
P     4.9    8.1    9.0
H    -4.1    1.7   12.3
H    -8.3  -10.0    2.0
P     5.0   -8.1    9.0
H    -0.7   11.8    5.7
I     8.4    2.1   -9.9
P     9.6   -0.0    9.0
H    10.9   -5.2    5.3
P     0.3   -0.0   13.2
I     7.2   -0.2   11.1
H     3.9    3.0   12.3
I     6.1   10.3   -5.7
H     1.1   -4.7   12.4
C    -8.8    5.4   -8.3
I     6.6  -10.1   -5.7
H    -3.6    3.4   12.3
H     4.4   12.6   -0.2
H   -13.2   -1.3    1.5
H    -9.1   -9.7   -0.2
H     0.9  -11.7   -6.4
I     8.7   -2.1  -10.0
H     9.0    4.7   -8.7
C    -4.2    2.7  -12.4
C     1.0   -5.3  -12.3
H    -0.7   -5.1   12.4
I    -5.6   10.1    6.9
H    -8.0   10.6   -2.2
H     5.2    1.7   12.3
H   -12.9   -3.7    1.2
H    -3.9    1.7  -12.8
H    -4.9   12.6   -0.2
H    -4.5  -12.5   -2.3
H    -7.8  -11.0   -0.2
H    13.2   -2.1    1.6
H    -1.1   -5.2  -12.4
C    -9.0    5.4    8.5
I    -5.3  -10.3    6.9
C     0.6  -10.7   -8.3
H    -9.8    4.7    8.2
H     9.5   -9.7   -0.2
H     4.8  -12.5   -2.3
H    -8.4    9.9    4.1
I   -11.0   -7.9   -1.5
H    -3.4    3.5  -12.7
I    -7.6   -2.0   11.1
C    -4.4    2.7   12.7
C   -13.3   -3.1    0.3
H    10.4    6.1   -6.4
H    13.7   -1.2    0.2
C     5.1    2.7  -12.4
C    -4.1   13.1    0.3
H     9.1   10.1   -2.2
C     0.4  -10.8    8.5
