         400
 sphere cut out from bulk 
I     0.0   -1.9   -0.7
P     1.9    0.7   -0.7
H    -1.8   -0.2    1.5
I    -0.7    2.5   -0.6
I     2.0    0.5    2.5
C    -2.6    0.4    2.0
H    -1.9    1.3   -2.5
H    -3.0    1.2    1.4
H    -1.2    1.6    3.0
H    -1.4    0.1   -3.6
H    -2.8   -0.1   -2.6
N    -2.0    1.0    3.3
N    -2.3    0.6   -3.2
H     2.4   -2.2    2.3
H    -3.4   -0.3    2.4
H    -1.6    0.3    3.9
I     1.7    0.5   -3.9
H     1.4   -2.2   -3.8
H     1.7   -4.1    1.1
P    -2.5   -3.8   -0.7
I    -4.4   -1.2   -0.8
H     0.7   -3.9    2.6
I     4.5   -1.2   -0.8
N     2.6   -3.1    2.7
H    -2.7    1.5    3.8
C     1.7   -4.1    2.2
H     2.0    3.9    2.6
I     3.8    3.2   -0.8
H     0.3   -3.4   -3.8
I    -2.7   -3.6    2.5
H     1.7    4.8    1.1
N     1.2   -3.1   -4.1
H     2.2   -4.1   -2.6
C    -3.1    1.2   -4.2
H     3.6   -3.3    2.3
H     2.7   -3.1    3.7
C     1.7    4.8    2.2
H    -2.5    2.0   -4.7
H    -4.0    1.7   -3.7
H     0.7    5.1    2.6
P    -2.5    5.1   -0.7
I    -2.4   -3.7   -3.9
H     2.2    4.9   -2.6
C     2.2   -4.1   -3.7
H     1.9    3.9   -4.1
I    -0.6   -1.1    5.9
H     5.5   -0.3    2.4
H    -3.4    0.4   -4.9
I    -5.1    3.2   -0.8
H     2.0   -5.1    2.6
H     1.1   -3.0   -5.2
P     2.0    0.8    5.7
H     5.9    1.2    1.4
H     4.9    1.7   -3.7
H     3.2   -3.8   -4.1
I    -2.7    5.3    2.5
I     0.2    3.4    5.5
I    -0.7   -6.4   -0.6
C     2.2    4.9   -3.7
H     6.1   -0.1   -2.6
C     6.3    0.4    2.0
H    -5.3   -3.3    2.3
H     0.2    5.6   -3.8
H     1.9   -5.1   -4.1
N     2.6    5.9    2.7
I     3.9   -5.8   -0.8
I    -2.4    5.2   -3.9
P    -7.0    0.7   -0.7
I     0.0    7.0   -0.7
H     3.6    5.7    2.3
I     3.8   -1.9    5.8
P    -2.4   -3.7    5.7
H     7.1   -0.2    1.5
N     1.2    5.9   -4.1
H    -6.5   -2.2    2.3
C     5.8    1.2   -4.2
H     3.2    5.2   -4.1
N     6.6    0.6   -3.2
H     5.5    0.4   -4.9
I    -4.2    2.5    5.6
P     1.8    0.8   -7.2
I    -7.0    0.5    2.5
H     2.7    5.9    3.7
P     6.4   -3.8   -0.7
H     6.3    1.5    3.8
N    -6.3   -3.1    2.7
H     7.0    1.3   -2.5
I    -0.9    2.5   -7.1
I     0.0   -2.0   -7.3
H     2.4    6.8    2.3
I     6.3   -3.6    2.5
I    -5.1   -5.8   -0.8
I     4.7    2.5    5.6
N     7.0    1.0    3.3
H    -6.2   -3.1    3.7
I     0.2   -5.6    5.5
H     1.4    6.8   -3.8
H     1.1    5.9   -5.2
I    -5.1   -1.9    5.8
H    -5.7   -3.8   -4.1
H    -1.2   -7.4    3.0
H    -5.3    5.7    2.3
P    -2.5    5.3    5.7
H     6.4    2.0   -4.7
P     6.4    5.1   -0.7
I    -7.2    0.5   -3.9
H    -6.7   -4.1   -2.6
H     7.5    0.1   -3.6
H    -1.9   -7.7   -2.5
H     7.3    0.3    3.9
H    -6.9    3.9    2.6
H    -7.2   -4.1    1.1
H    -3.0   -7.8    1.4
H    -3.1    1.5    7.7
H     7.7    1.6    3.0
P    -2.6   -3.7   -7.1
I     6.5   -3.7   -3.9
P     2.0   -8.3   -0.7
I     3.6    3.4   -7.0
I     6.3    5.3    2.5
C    -7.3   -4.1    2.2
I     4.4   -1.1   -7.3
I     8.3    2.5   -0.6
H    -6.7    4.9   -2.6
H    -7.5   -2.2   -3.8
I    -4.5   -1.1   -7.3
C    -6.7   -4.1   -3.7
H    -5.7    5.2   -4.1
H    -2.6   -7.4    3.8
H    -7.3    4.8    1.1
H     2.2   -2.5    8.2
H    -2.5   -7.0   -4.7
N    -2.0   -8.0    3.3
H    -1.1    0.7    8.8
I    -4.4    7.8   -0.8
H    -7.0    3.9   -4.1
P    -6.9    0.8    5.7
C    -7.3    4.8    2.2
H    -6.9   -5.1    2.6
N    -6.3    5.9    2.7
I     4.5    7.8   -0.8
H     1.3   -4.0    8.0
I     2.0   -8.5    2.5
C    -6.7    4.9   -3.7
H    -2.3   -0.6    8.8
H    -4.0   -7.3   -3.7
H    -1.9    8.8    1.5
I    -8.9   -1.9   -0.7
C    -2.6   -8.6    2.0
I     9.0   -1.9   -0.7
P    -2.6    5.2   -7.1
I     6.5    5.2   -3.9
N    -2.3   -8.4   -3.2
I     2.3    0.8    8.9
N    -7.7   -3.1   -4.1
N    -3.1    1.4    8.7
C    -3.1   -7.8   -4.2
H    -6.3    5.9    3.7
C     1.6   -3.3    8.7
C    -2.0    0.4    9.2
P     6.5   -3.7    5.7
I    -5.3    3.4   -7.0
H    -1.8   -9.1    1.5
H     1.2    4.9    8.0
H    -8.2   -3.9    2.6
I     1.7   -8.5   -3.9
H    -2.0    1.4   -9.2
I    -4.2   -6.5    5.6
H    -7.0   -5.1   -4.1
H     0.7   -2.8    9.1
H     5.0   -7.3   -3.7
I    -0.8   -6.4   -7.1
H    -3.4    8.7    2.4
H    -2.9    8.9   -2.6
H     1.6   -3.0   -9.1
H    -1.4   -8.9   -3.6
I     3.6   -5.6   -7.0
H    -1.6   -8.7    3.9
H    -6.6    6.8    2.3
H     5.8    1.5    7.7
I     4.7   -6.5    5.6
H    -2.8    2.3    9.1
H    -7.8   -3.0   -5.2
H    -1.5    9.1   -3.6
P     1.9    9.6   -0.7
I    -0.6    7.9    5.9
H    -2.8   -9.1   -2.6
I     3.8    7.0    5.8
H     6.0   -7.8    1.4
C    -2.6    9.4    2.0
I    -9.6    2.5   -0.6
H    -4.0    1.1    9.1
I     1.9    9.5    2.5
H    -8.3    5.1    2.6
H    -8.7   -3.4   -3.8
I    -2.5   -4.0    8.9
I     0.0    7.0   -7.3
P     6.5    5.3    5.7
H    -3.4   -9.2    2.4
P    -7.1    0.8   -7.2
H    -1.6    9.2    3.9
I     8.3   -1.1    5.9
P     6.3   -3.7   -7.1
P     2.1   -8.2    5.7
H     2.7   -4.3   -9.0
N    -2.3    9.5   -3.2
H     4.9    1.1    9.1
I     1.7    9.5   -3.9
I    -5.3   -5.6   -7.0
H    -3.4   -8.5   -4.9
I    -5.1    7.0    5.8
H    -2.0    0.4   10.3
H     6.3   -7.4    3.8
H     9.2   -3.4   -3.8
H     2.6    4.7   -9.0
I     8.3   -6.4   -0.6
C     1.6    5.7    8.7
N     2.3   -3.5   -9.6
N    -2.0    1.4  -10.2
I     1.6    0.8  -10.4
I    -2.5    5.0    8.9
N    -7.7    5.9   -4.1
H     5.5    8.7    2.4
C     5.8   -7.8   -4.2
N     5.9    1.4    8.7
H     6.4   -7.0   -4.7
H     2.2    6.5    8.2
H    -1.1    1.2  -10.5
N    -2.0   10.0    3.3
H   -10.1    1.6    3.0
H     9.6   -3.9    2.6
H    -2.7   -0.7  -10.3
H     7.0   -7.7   -2.5
H    -3.0   10.2    1.4
H    -1.9   10.2   -2.5
H     3.1   -2.9   -9.9
N     2.4   -3.9    9.7
H     3.2   -4.4    9.3
H    -7.5    6.8   -3.8
P     6.3    5.2   -7.1
C     6.3   -8.6    2.0
P    -7.0   -8.3   -0.7
H   -10.8   -0.2    1.5
H    -6.7   -2.5    8.2
H     3.2    4.6    9.3
I    -8.8    3.4    5.5
P    10.9    0.7   -0.7
I     0.0  -10.9   -0.7
H   -10.4    0.1   -3.6
H     1.6    6.0   -9.1
H     6.6   -0.6    8.8
H     5.5   -9.2    2.4
H    -8.7    5.6   -3.8
I     8.1    2.5   -7.1
H    -2.3    2.3  -10.5
P     1.8   -8.2   -7.2
H     6.1    8.9   -2.6
H     0.7    6.2    9.1
H    -1.2   10.6    3.0
H    -4.0    0.6  -10.3
N     7.0   -8.0    3.3
H    -7.8    5.9   -5.2
H     7.8   -7.4    3.0
C    -3.0    0.3  -10.7
I    -4.4  -10.2   -0.8
H     9.6    5.1    2.6
H    -3.4    9.4   -4.9
I     9.1    3.4    5.5
I    -6.6    0.8    8.9
I    10.9    0.5    2.5
N     6.7   -8.4   -3.2
I     4.5  -10.2   -0.8
H    -3.1   -7.5    7.7
H     6.1    2.3    9.1
H   -10.8    1.3   -2.5
H   -10.5    0.3    3.9
N     2.4    5.1    9.7
H    10.3   -2.2   -3.8
H     2.8   -3.2   10.4
I    -7.0   -8.5    2.5
H     6.1   -9.1   -2.6
I    -9.6   -1.1    5.9
H     5.5   -8.5   -4.9
N     2.3    5.5   -9.6
H     1.8    4.4   10.3
H     0.8    4.2  -10.5
I    10.6    0.5   -3.9
N    10.1   -3.1   -4.1
I    -8.9    7.0   -0.7
H     7.1    8.8    1.5
H     9.2    5.6   -3.8
H     1.8   -4.6   10.3
N   -10.9    1.0    3.3
I     8.9    7.0   -0.7
H    10.6   -4.1    1.1
I    -2.7   -4.0  -10.4
H     4.9    0.6  -10.3
C    -3.1   10.2   -4.2
P     2.0    9.7    5.7
C     6.9    0.4    9.2
C     6.3    9.4    2.0
H    -2.7   10.5    3.8
I    -0.7   11.5   -0.6
I    -9.6   -6.4   -0.6
H     0.8   -4.8  -10.5
H     6.9    1.4   -9.2
C    10.6   -4.1    2.2
H    -2.8   -6.6    9.1
I     4.4    7.8   -7.3
H     2.4  -11.1    2.3
I    -4.5    7.8   -7.3
I    -0.6  -10.0    5.9
N   -11.2    0.6   -3.2
I    -8.9   -2.0   -7.3
H     7.1   -9.1    1.5
I     6.4   -4.0    8.9
H    10.6    4.8    1.1
C     1.7   -4.1  -10.8
H    10.0   -3.0   -5.2
C   -11.5    0.4    2.0
H    11.3   -2.2    2.3
I     9.0   -2.0   -7.3
H    -6.3   -4.3   -9.0
H    -5.7   -4.4    9.3
H    -7.7   -4.0    8.0
I    -8.7   -5.6    5.5
I    -7.2   -8.5   -3.9
H     7.9    0.7    8.8
I    -2.7    5.0  -10.4
C    -7.3   -3.3    8.7
H    -5.9   -2.9   -9.9
C    10.6    4.8    2.2
H     1.4  -11.1   -3.8
H    10.9    3.9    2.6
H    -5.7    4.6    9.3
H     5.9   10.2    1.4
P    -7.0    9.6   -0.7
H    -6.3    4.7   -9.0
H     5.5    9.4   -4.9
N    -3.0   -7.6    8.7
H    -4.0   10.6   -3.7
H     3.1    6.1   -9.9
H     1.3   -3.3  -11.4
C     1.6    4.9  -10.8
H    -7.3   -3.0   -9.1
I    -7.0    9.5    2.5
N     6.6    9.5   -3.2
I     9.1   -5.6    5.5
H     7.3   -8.7    3.9
H   -11.8   -0.1   -2.6
H   -11.9    1.2    1.4
H    -2.0   -7.6   -9.2
H     6.2   -0.7  -10.3
I     6.4    5.0    8.9
H    -1.0   -8.3    8.8
P   -11.5   -3.8   -0.7
H    -7.7    4.9    8.0
H     7.5   -8.9   -3.6
P    -6.9   -8.2    5.7
H    -3.0    0.3  -11.8
H    -2.5   10.9   -4.7
I    -0.4   -1.3   12.1
H    11.2   -4.1   -2.6
P     1.8    9.7   -7.2
N    -6.6   -3.5   -9.6
H     2.8    5.8   10.4
H     5.8   -7.5    7.7
C     5.9    0.3  -10.7
H    10.9    3.9   -4.1
N    11.6   -3.1    2.7
H     7.5    9.1   -3.6
H   -11.6    1.5    3.8
H     4.9   10.6   -3.7
H    10.9   -5.1    2.6
N    -6.5   -3.9    9.7
I     2.3   -8.2    8.9
I    -9.8    2.5   -7.1
H    -2.3    8.4    8.8
H     6.9    0.4   10.3
I   -11.6   -3.6    2.5
P     2.1    0.7   12.2
N     6.9    1.4  -10.2
H     2.4    4.3  -11.4
N    10.1    5.9   -4.1
H     7.3    9.2    3.9
P    11.0    0.8    5.7
H    -6.8    6.5    8.2
H    11.2    4.9   -2.6
C    11.1   -4.1   -3.7
C     5.8   10.2   -4.2
I     0.3    3.3   12.0
H    -6.2   -3.2   10.4
H   -11.4    2.0   -4.7
I     8.1   -6.4   -7.1
H     2.4   -4.7  -11.4
I   -11.3   -3.7   -3.9
I    -7.2    9.5   -3.9
H    11.6   -3.1    3.7
H   -12.3   -0.3    2.4
N     6.9   10.0    3.3
