         400
 sphere cut out from bulk 
P    -0.2    1.9   -0.7
I     2.2   -0.1   -0.6
I    -2.2   -0.6   -0.6
H    -0.1   -1.3    2.2
H    -0.3   -2.5    0.9
C     0.0   -2.3    2.0
H    -0.1   -2.2   -2.4
I    -0.4    2.1    2.5
H     1.1   -2.6    2.1
H     2.9    1.8    2.4
C     0.0   -2.5   -3.5
H    -3.0    2.0    2.4
N    -0.8   -3.2    2.9
I    -0.3    1.8   -4.0
H     4.1    0.7    1.5
H    -1.8   -2.9    2.8
H    -0.7   -0.8   -4.3
H     1.1   -2.4   -3.8
N    -0.9   -1.8   -4.3
C     3.9    1.3    2.4
I     1.8    4.4   -0.8
I    -2.8    3.9   -0.8
H    -1.9   -1.9   -4.1
I     1.7   -4.5   -0.8
H    -0.5   -3.0    3.8
H    -0.6   -4.2    2.6
P     4.2   -2.5   -0.7
H     3.4    2.5   -2.8
H    -0.2   -3.6   -3.5
H    -4.8    0.7    1.5
H     3.2    1.0   -3.8
N    -4.0    2.4    2.4
H    -4.3    1.2   -2.8
H    -4.0    3.0    1.5
H     4.1    0.7    3.3
P    -4.7   -2.5   -0.7
C     3.9    1.7   -3.4
H    -0.6    4.8    2.6
H     4.7    1.2   -2.8
C    -5.0    1.3    2.4
I     4.4   -2.7    2.5
H    -0.8   -2.1   -5.3
I    -4.5   -2.7    2.5
I    -2.8   -5.1   -0.8
H    -4.8    0.7    3.3
H     4.9    3.0    1.5
H    -4.0    3.0    3.2
N     5.0    2.4    2.4
P    -0.3    1.9    5.7
I    -2.0   -0.9    5.8
I     2.4    0.1    5.7
H    -3.6    3.2   -4.0
C    -5.0    1.7   -3.4
I     4.4   -2.4   -3.9
H    -0.2    5.3   -3.5
I    -4.5   -2.4   -3.9
N    -0.7    5.8    2.9
H    -0.2    6.4    0.9
H     4.9    3.0    3.2
H    -3.8    1.8   -5.1
N    -4.3    2.5   -4.5
H    -5.5    2.5   -2.8
H    -6.0    1.8    2.4
H     5.9    2.0    2.4
I    -6.7   -0.1   -0.6
I     6.7   -0.6   -0.6
H     1.1    6.4    2.1
H    -1.8    6.0    2.8
N     4.6    2.5   -4.5
C     0.1    6.6    2.0
H    -5.7    1.0   -3.8
P    -0.3   -7.0   -0.7
H    -0.5    5.9    3.8
H     4.0    3.0   -5.1
H    -0.0    6.8   -2.4
C     0.1    6.4   -3.5
I     1.4   -4.3    5.7
I     6.2    3.9   -0.8
I    -0.4   -6.9    2.5
I     1.5   -0.6   -7.2
I    -3.0    3.6    5.7
H     5.3    3.2   -4.0
H    -4.1   -6.0    1.5
P    -0.2    2.2   -7.1
H     5.2    1.8   -5.1
I     1.4    4.7    5.7
P     4.2   -2.5    5.7
H     1.1    6.6   -3.8
H    -5.0    3.0   -5.1
I    -3.0    0.4   -7.1
P     4.3    6.4   -0.7
H     3.4   -6.5   -2.8
H     4.9   -6.0    1.5
P    -4.8   -2.5    5.7
H    -4.1   -6.0    3.2
H    -3.0   -7.0    2.4
H    -3.6   -5.8   -4.0
P    -4.7    6.4   -0.7
H    -0.6   -1.7    7.8
H    -0.1    7.7    2.2
I     6.1   -5.1   -0.8
N    -4.0   -6.6    2.4
I     4.4    6.3    2.5
H     2.9   -7.2    2.4
I    -4.5    6.3    2.5
I    -0.3   -7.1   -4.0
H     7.1   -2.9    2.8
H     0.6   -2.9    7.8
H    -1.8    7.0   -4.1
H     4.9   -6.0    3.2
H     7.1   -1.9   -4.1
I    -3.1   -5.3    5.7
N    -0.9    7.2   -4.3
I     2.6    3.8   -7.0
I    -2.0   -4.1   -7.1
I    -7.2    4.4   -0.8
H    -7.8   -2.6    2.1
N     4.9   -6.6    2.4
I    -7.2   -4.5   -0.8
H     3.6    2.1    7.5
P     4.2   -2.4   -7.1
I    -2.2    8.4   -0.6
N     0.1   -2.2    8.4
I    -6.5    0.1    5.7
H    -0.8    6.8   -5.3
H     3.9   -5.9   -5.1
I    -1.9    4.8   -7.1
H     5.3   -5.8   -4.0
I     4.4    6.6   -3.9
P    -4.7   -2.4   -7.1
C     3.9   -7.2   -3.4
I    -4.5    6.6   -3.9
C     3.9   -7.6    2.4
P     8.7    1.9   -0.7
I     5.9    3.6    5.7
H     0.7   -1.5    8.8
N    -4.3   -6.5   -4.5
H    -5.6   -6.5   -2.8
H    -7.9   -2.4   -3.8
I     6.9   -0.9    5.8
I     2.5   -5.1   -7.0
H     8.7   -2.5    0.9
I    -0.2    1.9    8.9
P    -0.3   -7.1    5.7
N     4.6   -6.5   -4.5
I     2.2    8.8   -0.6
I     8.5    2.1    2.5
H     8.8   -1.3    2.2
N     8.2   -3.2    2.9
H    -0.6    8.2   -4.3
H    -5.0   -5.9   -5.1
H    -4.3   -7.7   -2.8
I     6.0    0.4   -7.1
N     8.0   -1.8   -4.3
I     2.2   -9.1   -0.6
H     4.0   -8.3    1.5
H     3.2   -7.9   -3.8
H     8.3   -0.8   -4.3
C    -8.9   -2.3    2.0
P    -9.2    1.9   -0.7
H    -9.1   -1.3    2.2
H     5.9   -7.0    2.4
C    -5.0   -7.2   -3.4
H     8.8   -2.2   -2.4
H     2.5    2.3    8.8
H     4.6   -7.7   -2.8
C    -5.0   -7.6    2.4
C     9.0   -2.3    2.0
H    -5.4    2.1    7.5
N     3.5    2.5    8.5
H    -3.8   -7.1   -5.1
P     4.2    6.4    5.7
H    -9.2   -2.5    0.9
H    -9.0   -2.2   -2.4
H     8.3   -4.2    2.6
H    -6.0   -7.2    2.4
I     8.7    1.8   -4.0
H     0.5   -1.3   -9.6
H    -4.9   -8.3    1.5
I     5.9   -5.3    5.7
H     8.4   -3.0    3.8
H     7.2    6.0    2.8
H     4.1   -8.2    3.3
P    -4.7    6.4    5.7
I    -2.2   -9.5   -0.6
H    -1.4   -3.6    9.0
P    -0.2   -6.8   -7.1
C    -8.9   -2.5   -3.5
H     0.6    6.1    7.8
I    -9.3    2.1    2.5
H    -3.5    1.9    9.0
H     3.7    3.5    8.5
C    -0.7   -3.0    9.5
C     9.0   -2.5   -3.5
H     8.1   -2.1   -5.3
H     8.3    4.8    2.6
H     4.1    1.7   -9.0
H     8.7   -3.6   -3.5
H    -4.9   -8.2    3.3
H     5.1   -7.1   -5.1
I    -2.0    8.1    5.8
H    -0.3   -3.5   -9.5
I    -9.2    1.8   -4.0
I     4.1   -2.9    8.9
H     4.2    0.6    9.3
I    -6.4    3.8   -7.0
H    -7.8    6.4    2.1
I    -7.4   -0.6   -7.2
H    -4.8    1.7   -9.0
N    -5.4    2.5    8.5
H    -1.2   -2.2   10.1
I    -7.6   -4.3    5.7
N     8.2    5.8    2.9
H    -9.1   -3.6   -3.5
H    -0.2  -10.2    2.2
H    -5.7   -7.9   -3.8
H    -4.8    0.6    9.3
P     8.6    1.9    5.7
C     4.4    1.7    9.4
I     0.1    2.0  -10.3
I    -4.9   -2.9    8.9
H    -1.3    5.3    9.0
I    -7.5    4.7    5.7
H    -9.6   -0.8   -4.3
C    -4.5    1.7    9.4
H    10.0   -2.6    2.1
H     4.1    9.6    1.5
P     4.3    6.6   -7.1
H    -5.2    3.5    8.5
N    -9.7   -3.2    2.9
H     2.8    1.8  -10.1
H    -9.4   -3.0    3.8
N     0.6   -1.9  -10.5
H    -0.6    7.3    7.8
H    -0.7   -9.7   -4.3
H     0.1   -3.5   10.1
H     5.4    1.9    9.0
H     3.5   -6.8    7.5
P    -4.7    6.6   -7.1
H    -9.6   -4.2    2.6
N     0.1    6.7    8.4
I     7.0   -4.1   -7.1
H     7.1    7.0   -4.1
I     6.8    8.4   -0.6
H     3.7   -5.5    8.5
I     2.4   -8.8    5.7
I    -6.4   -5.1   -7.0
N     3.8    1.5  -10.0
H     1.6   -2.3  -10.5
H     8.7    5.3   -3.5
H    -1.4   -2.5  -10.4
C    -0.4   -2.9  -10.4
H    -4.8    9.6    1.5
H     8.7    6.4    0.9
N    -9.8   -1.8   -4.3
P    -0.2   10.9   -0.7
H    -7.8    6.6   -3.8
H    10.0   -2.4   -3.8
H     4.0    0.5  -10.2
H    -0.2    5.4   -9.5
H    -9.5    4.8    2.6
H     4.1    9.7    3.3
I     2.4    9.1    5.7
H     8.5    5.9    3.8
P    -9.2    1.9    5.7
I     7.0    4.8   -7.1
I     1.6    8.3   -7.2
I    -6.7    8.8   -0.6
H    -9.1    5.3   -3.5
H    -6.4    2.3    8.8
I    11.1   -0.1   -0.6
I   -11.1   -0.6   -0.6
P     8.7   -7.0   -0.7
H     3.3   10.0   -3.8
C    -0.6    6.0    9.5
I     8.5   -6.9    2.5
H    -9.2    6.4    0.9
C    -8.8    6.6    2.0
N     3.4   -6.5    8.5
C     4.0   10.2    2.4
H     2.5   -6.6    8.8
H    -4.8    9.7    3.3
H    -9.7   -2.1   -5.3
I    -0.4   11.0    2.5
I    -6.8   -9.1   -0.6
N    -5.1    1.5  -10.0
H    -4.2   10.1   -2.8
I     4.2   -2.2  -10.3
H    -5.0    0.5  -10.2
C     9.0    6.6    2.0
H     3.0   10.7    2.4
I    -0.2   -7.1    8.9
H    -0.1  -11.1   -2.4
H     0.5   -1.3  -11.3
H    -5.3   -5.5    8.5
H    -3.2    2.1  -10.7
C     0.0  -11.3    2.0
H     8.9    6.8   -2.4
H     0.1    5.5   10.1
H     4.3    2.1   10.4
H   -10.7   -2.9    2.8
C    -8.9    6.4   -3.5
H    -5.4   -6.8    7.5
I    -0.2   10.8   -4.0
H    -0.3  -11.5    0.9
P     8.8    2.2   -7.1
H    -9.0    6.8   -2.4
I    -3.0   -8.5   -7.1
H     8.3   -1.7    7.8
H     4.7   10.1   -2.8
H     0.8    7.4    8.8
I     4.1    6.1    8.9
I    -2.1   -9.8    5.8
C     9.0    6.4   -3.5
I    -4.8   -2.2  -10.3
H    -3.0   10.9    2.4
H    -4.6    2.1   10.4
I    10.7    4.4   -0.8
P    -9.2   -7.0   -0.7
I    10.7   -4.5   -0.8
N    -0.9  -10.7   -4.3
N    -9.7    5.8    2.9
C    -5.0   10.2    2.4
N     8.1    7.2   -4.3
I     6.7   -9.5   -0.6
H   -10.8   -1.9   -4.1
H    -1.9  -10.9   -4.1
H     1.1  -11.5    2.1
H    -9.4    5.9    3.8
P    -9.1    2.2   -7.1
H    -8.4   -2.9    7.8
I    -4.8    6.1    8.9
I     8.6   -7.1   -4.0
I    -9.4   -6.9    2.5
H    -0.3   -3.6  -11.3
C     4.0   10.7   -3.4
H     8.2    6.8   -5.3
H     8.8    7.7    2.2
H    -6.1    1.8  -10.1
C    -4.3    2.4  -10.9
H     1.0  -11.3   -3.8
C     0.0  -11.5   -3.5
N    -5.5   -6.5    8.5
H    -3.5   -7.1    9.0
H     4.5    3.4  -10.6
H    -4.5    3.4  -10.6
C    -0.4    6.0  -10.4
I     1.5   -9.6   -7.2
H    -9.0    7.7    2.2
C     4.6    2.4  -10.9
H    10.1    6.4    2.1
I    -2.9    9.4   -7.1
H    -5.7   10.0   -3.8
H    -8.2   -1.5    8.8
I     6.9    8.1    5.8
H    -1.2    6.7   10.1
I     1.6   -0.8   12.1
N    -3.9   11.3    2.4
H     3.4   11.4   -2.8
P    -0.3    1.7   12.1
H    11.9    1.8    2.4
P    -0.3   10.8    5.7
P     4.2  -11.5   -0.7
H     4.1   -7.3   -9.0
C    -5.0   10.7   -3.4
H    -0.8  -11.1   -5.3
I    -9.2   -7.1   -4.0
H     7.6   -3.6    9.0
H     0.6    7.7   -9.6
H   -11.9    2.0    2.4
H    -1.8  -11.9    2.8
H     5.7    2.1  -10.7
I   -11.7    3.9   -0.8
H    -1.4    6.5  -10.4
I    -6.6   -8.8    5.7
I     0.0   -6.9  -10.3
N    -8.9   -2.2    8.4
I   -10.9   -0.9    5.8
H     8.3    8.2   -4.3
I    -2.8   -0.3   12.1
H    -9.5   -1.7    7.8
P    -4.7  -11.5   -0.7
N    -0.8  -12.1    2.9
H    -5.9   10.7    2.4
H    -3.7   10.8   -5.1
N     9.0   -2.2    8.4
P     8.6   -7.1    5.7
H     1.6    6.7  -10.5
H    -0.3    5.4  -11.3
I    10.3   -4.3    5.7
I    -6.5    9.1    5.7
H    -4.9   -7.3   -9.0
H   -10.7    6.0    2.8
H    10.0    6.6   -3.8
H    -0.5  -12.0    3.8
H     9.5   -2.9    7.8
I     5.9   -8.5   -7.1
N     5.0   11.3    2.4
I     8.8    1.9    8.9
C     4.4   -7.2    9.4
