         400
 sphere cut out from bulk 
H    -1.7    1.3   -0.3
H    -1.7    0.6    1.4
I     1.4   -2.2    0.2
C    -2.3    1.1    0.6
I     0.8    2.1   -1.4
P     2.8    0.7    0.6
H    -3.0   -0.8   -0.1
N    -3.4    0.1    0.3
H     1.4   -2.1   -2.4
H    -2.8    2.0    1.0
I     1.0    1.4    3.1
H    -4.0    0.5   -0.4
H    -4.0   -0.1    1.1
H     0.2   -0.7   -4.1
H     2.5   -1.1   -3.2
N     1.8   -1.9   -3.3
H     1.8   -1.4    3.6
I    -3.0   -3.1   -1.3
H     0.7   -2.9    3.7
P    -0.8   -4.6    0.6
H     0.1    4.7    0.8
C     0.8   -1.6   -4.4
I    -2.4    0.4   -4.2
H     1.8    4.5    0.6
I    -2.2   -3.1    3.1
C     1.6   -2.3    4.2
H     0.1   -2.5   -4.4
I     4.7   -0.1   -2.0
H     2.4   -2.8   -3.6
P    -0.8    3.2   -3.9
H     3.9   -3.4    0.2
C     1.0    5.2    0.9
I    -2.4    4.4    2.6
I     5.0   -0.9    2.5
H     1.3   -1.5   -5.3
I     4.5    3.3    0.8
H     2.5   -3.0    4.2
I    -3.1    4.3   -2.0
H     0.3   -1.4    5.6
H     4.6    2.3   -3.0
H     1.2    5.5    1.9
P    -0.7    3.2    5.0
N     1.2   -2.0    5.6
N     4.6   -4.1   -0.0
H     0.9    6.0   -1.0
I    -2.9    0.8    5.4
P    -4.4   -2.0   -4.0
H     4.5   -4.4   -1.0
I     0.5   -6.1   -2.0
N     1.0    6.3   -0.0
I     1.5    2.1   -5.9
H     4.0    3.7   -3.5
H    -5.4   -3.6    0.0
H     3.8    2.7    4.6
H     2.0   -1.6    6.0
I    -6.0   -0.9    2.5
H     5.5   -3.6    0.0
I    -6.3   -0.1   -2.0
I     1.2   -6.0    2.6
N     4.8    3.1   -3.5
H     1.0   -2.9    6.1
H     3.7   -5.7    0.8
H     7.0    0.5   -0.4
H     0.2    7.0    0.2
P    -4.4   -2.0    5.1
I     0.7    6.0   -3.6
C     4.7   -5.2    0.9
H     7.0   -0.1    1.1
H     1.9    6.8    0.0
H    -5.4    3.6   -3.0
H     4.8   -4.9    1.9
I     4.4   -4.4   -3.6
H    -4.9    2.2   -4.8
H     5.0    3.7    3.7
I    -6.4    3.3    0.8
H     4.4    2.3   -5.4
P    -4.4    5.8    0.6
H     5.6    3.6   -3.0
H    -6.3    2.3   -3.0
C     4.5    3.6    4.7
I    -2.7   -3.8   -5.9
N    -6.4   -4.1   -0.0
H    -2.5    0.3   -7.1
I     1.3    5.6    4.9
N     7.6    0.1    0.3
H    -1.7   -6.8   -3.0
I    -2.8   -7.1    0.8
C     5.2    2.8   -4.9
N    -6.1    3.1   -3.5
H     3.9    4.5    4.9
H    -4.9    2.5    5.5
H    -6.5   -4.4   -1.0
H    -7.1   -3.4    0.2
P     6.6   -2.0   -4.0
H    -2.4   -6.7    3.7
H    -6.0    3.7    3.7
H     8.0   -0.8   -0.1
C    -5.7    2.8   -4.9
H     5.5   -5.9    0.6
I     0.7    2.2    7.8
H    -6.2   -4.9    1.9
H    -5.5   -5.9    0.6
H     6.1    2.2   -4.8
I     4.9   -0.8   -6.4
I    -2.3    4.3   -6.6
P    -8.2    0.7    0.6
H    -3.4   -6.7   -3.5
I     4.2   -0.8    7.0
C    -6.3   -5.2    0.9
I     4.9   -4.8    4.9
N    -2.5   -7.3   -3.5
H    -3.4   -5.9    4.9
I     0.8   -1.9   -8.2
H     8.2    2.0    1.0
I    -2.3    8.2    0.2
H     6.0    2.5    5.5
H     0.8   -8.4    1.0
H    -1.3    7.6   -3.6
P     6.5   -2.0    5.1
H    -2.8    0.9    8.0
H     5.5    3.8   -5.4
C    -2.7   -0.1   -8.1
N     5.5    3.3    5.7
N    -5.5    3.3    5.7
H    -4.8    4.1    5.8
H    -5.5    3.8   -5.4
H    -1.2    7.4    4.2
I     4.4    7.3   -1.3
H    -7.0    3.7   -3.5
H    -1.2   -6.3    5.8
I     8.0   -3.1   -1.3
H    -1.8   -0.7   -8.5
I    -6.6   -4.4   -3.6
P     2.9   -7.2   -3.9
I    -2.8   -3.1    7.6
C    -2.9   -6.8    4.7
H    -1.9   -6.6   -5.4
P     6.5    5.8    0.6
C     8.7    1.1    0.6
C    -6.5    3.6    4.7
H    -6.6    2.3   -5.4
H    -2.9    7.5    3.7
I    -6.1   -0.8   -6.4
I     1.0   -5.3    7.0
H     5.1    3.1    6.6
P     2.9    0.6   -8.4
H    -2.2    8.3   -2.4
H    -7.2    2.7    4.6
H    -3.6   -0.6   -8.2
I     1.3   -6.1   -6.6
I    -2.6    5.1    7.0
H    -2.7   -8.1   -3.0
I    -6.1   -4.8    4.9
H    -8.5   -1.1   -3.2
I     7.9    4.3   -2.0
C    -2.1   -7.6   -4.9
P     2.9   -7.2    5.0
C    -2.1    8.1    4.2
N    -1.9   -7.1    5.7
N    -1.8    8.5   -3.3
H    -7.3   -5.7    0.8
H     1.9   -9.1   -0.3
H    -1.8    1.6   -9.0
H     9.3    1.3   -0.3
H    -1.8    1.7    9.0
H     6.2    4.1    5.8
H    -0.3    5.1   -7.9
H    -5.9    3.1    6.6
H     9.3    0.6    1.4
C     1.3   -9.3    0.6
N    -2.7    1.2    9.0
I     5.2    7.3    3.1
N    -2.7    1.1   -9.0
I     8.6    0.4   -4.2
I     4.5   -8.3   -1.4
P    -0.9   -4.5   -8.4
H    -1.2   -8.2   -4.8
H    -3.5    1.8   -8.8
H    -3.6   -7.7    4.6
H    -7.1    4.5    4.9
H    -1.3   -7.9    5.5
P     3.0    8.4   -4.0
H    -8.6   -2.8   -3.6
H    -3.5    7.9   -4.4
I     8.1    0.8    5.4
H     4.5   -3.2   -8.1
H    -1.8   -0.7    9.6
H     2.0    5.8   -7.6
I    -5.8    7.3    3.1
I    -6.8   -0.8    7.0
I    -9.6   -2.2    0.2
H    -1.8    9.0    3.6
I     8.8   -3.1    3.1
H    -1.2    9.3   -3.2
I     1.4    9.5    2.5
I    -6.6    7.3   -1.3
H    -0.4   -9.9   -0.4
H    -8.5   -3.0    4.2
N    -9.2   -1.9   -3.3
H    -2.7    7.5    6.1
H    -9.2   -1.4    3.6
I     8.6    4.4    2.6
H     0.7    4.4    9.0
I     4.7    6.6   -5.9
H     1.9   -9.8    1.4
H    -3.4    1.8    9.3
P     2.9    0.6    9.6
I     0.9   -1.9    9.9
H    -2.3   -7.3    6.6
H     3.3   -5.3   -7.9
H    -9.6   -2.1   -2.4
H     0.7    4.4   -9.1
H    -2.9   -8.1   -5.4
H    -9.1    4.5    0.6
C    -2.9    8.8   -4.4
N     0.3    5.3   -8.7
P     2.9    8.4    5.1
C    -2.6   -0.0    9.9
H    -0.3    5.7    8.6
N     0.2  -10.3    0.3
H     3.3   -4.7    8.6
N    -2.5    8.4    5.6
H    -5.4   -4.6   -7.6
H    -2.8    0.8  -10.0
I   -10.2    2.1   -1.4
H    -3.6   -0.5    9.9
I     1.1   10.3   -2.0
I    -9.9    1.4    3.1
H     5.6   -4.6   -7.6
H     4.4    9.6   -0.1
I     0.7    2.1  -10.3
C    -9.4   -2.3    4.2
C     1.4    6.3   -8.4
H    -0.4  -10.5    1.1
I     4.7   -9.0    3.1
I     5.0    3.0   -8.8
C     5.0   -4.1   -8.4
H    -2.3    8.9   -5.3
I    -6.5   -8.3   -1.4
H     7.6   -6.7   -3.5
P    -0.8   -4.5    9.7
N     0.3    5.3    9.3
P    -4.5   -9.7    0.6
H     7.6   -5.9    4.9
H    -6.5   -3.2   -8.1
H     0.9    7.2   -8.1
I     8.2   -7.1    0.8
H    -1.7    8.8    6.0
N     3.9   -5.1   -8.7
I    -6.3    6.6   -5.9
I     1.2  -10.0   -4.2
H     3.4   10.3    1.1
I     8.3   -3.8   -5.9
I     5.1    3.0    9.2
H    -9.0   -1.6    6.0
H    -5.4   -3.9    8.7
I     0.7   -9.6    5.4
H    -3.4    9.7   -4.1
H    -0.4    5.6   -9.5
H     7.4   -0.6   -8.2
I    -2.7  -10.5   -2.0
H    -3.3    9.0    5.6
I    -5.9    3.0   -8.8
H     2.0    6.5    8.7
H     5.6   -3.9    8.7
H     8.5    0.3   -7.1
H     3.3   -4.8   -9.5
P    -0.8   11.1    0.6
C    -6.0   -4.1   -8.4
H    -9.7   -1.5   -5.3
P    10.2   -4.6    0.6
P    -4.5    5.9   -8.4
H     0.6  -11.2   -0.1
H    -2.5    0.3   10.9
N     4.0   10.5    0.3
C   -10.2   -1.6   -4.4
C   -10.0    5.2    0.9
H   -10.2   -2.9    3.7
I    -2.9   -3.2  -10.4
N     3.9   -5.1    9.3
I    -9.5    2.1   -5.9
H    -0.3    5.1   10.1
H    -9.1    6.8    0.0
I    -5.9    3.0    9.2
H     3.3   10.9   -0.4
H    -9.8    5.5    1.9
P    10.2    3.2   -3.9
I    -6.3   -9.0    3.1
I     5.1   -8.3   -5.9
H     4.5   -3.2   10.0
N    -9.8   -2.0    5.6
I     4.5    7.3    7.6
H    -5.4   -3.9   -9.3
H     8.6   -6.7    3.7
H     8.2    0.9    8.0
H     1.9    6.5   -9.3
H   -10.7   -0.7   -4.1
H     5.6   -3.9   -9.3
C     8.1   -6.8    4.7
P    -8.1   -7.2   -3.9
I     8.1   -3.1    7.6
H     7.4   -7.7    4.6
I     1.3    9.6   -6.4
C     1.4    6.3    9.7
H     4.3   -6.0    9.0
C     5.0   -4.1    9.7
C     8.3   -0.1   -8.1
H     8.1    7.5    3.7
H    -6.6    9.6   -0.1
N     8.5   -7.3   -3.5
I     8.6    4.3   -6.6
P     6.4   -9.7    0.6
H     7.5    1.8   -8.8
H     4.3   -6.0   -9.1
P    -8.1    0.6   -8.4
I    -9.7   -6.0    2.6
H     7.4    7.9   -4.4
I    -5.8   -8.3   -5.9
I    -2.3   -7.4   -8.8
I    -2.4  -11.3    2.5
I     4.2   -0.9  -11.0
N   -10.0    6.3   -0.0
H   -10.1    6.0   -1.0
H     9.3   -6.8   -3.0
P    10.3    3.2    5.0
I     0.6    9.6    7.0
H   -10.9    4.7    0.8
H     3.3   -5.3   10.1
P    -8.1   -7.2    5.0
H    11.2   -0.7   -4.1
I     8.7    8.2    0.2
H     8.3   -8.1   -3.0
H    11.1    4.7    0.8
H   -10.9   -2.5   -4.4
I    -2.3   -7.4    9.2
I     8.4    5.1    7.0
H   -10.0   -2.9    6.1
I    11.8    2.1   -1.4
C    -6.0   -4.1    9.7
H     7.6    1.8    9.3
H   -10.7   -1.4    5.6
I     4.3   -8.2    7.8
P     6.5    5.9   -8.4
H     2.0    5.9   10.4
I    -2.8    8.5   -8.2
P    -4.5    5.9    9.7
H    11.1   -2.5   -4.4
I    -9.7    5.6    4.9
H    -7.7   -5.3   -7.9
P    -8.0    8.4   -4.0
I   -10.5   -6.1   -2.0
H     1.9   -1.6  -12.0
I     1.0   -5.4  -11.0
H     8.7    8.3   -2.4
H     0.2   -8.6   -8.8
N     8.3    1.2    9.0
H    -5.3   11.0    1.4
H     7.4   -0.5    9.9
H    -6.5   -3.2   10.0
N     8.3    1.1   -9.0
N    -7.1   -5.1   -8.7
H     0.9    7.2   10.0
I    -6.5    7.3    7.6
H     1.0   -3.0  -12.0
I    -2.6    5.0  -11.0
H     1.1  -10.1   -7.1
I   -10.2    6.0   -3.6
I     1.5    2.1   12.2
H    -7.7   -4.7    8.6
H     3.9  -11.1   -4.1
H     9.1   -6.6   -5.4
H     9.1   -0.7   -8.5
H     0.8   -9.5    8.0
I    -2.6   11.8    3.1
H     5.7   11.0    1.4
I    12.0    1.4    3.1
I    -2.3    4.3   11.5
C     5.0   11.5    0.6
I    12.4   -2.2    0.2
H    -5.3   -4.5   10.4
H     0.3   -1.5  -12.5
H     8.0   -8.1   -5.4
P    -8.1    0.6    9.6
I     4.9   10.8   -4.2
H    11.7   -2.9    3.7
N    -7.0   10.5    0.3
C     8.9   -7.6   -4.9
H     0.2   -8.6    9.3
C    11.8   -1.6   -4.4
I     4.9   -0.8   11.6
H    -6.7   -6.0    9.0
P   -11.8   -4.6    0.6
H    11.3   -1.4    5.6
H     5.6   -4.5   10.4
P    -8.1    8.4    5.1
H     1.9   -8.7    9.0
H     1.9   -8.8   -9.0
C     8.9    8.1    4.2
N     1.1   -2.1  -12.5
H     8.3    7.5    6.1
