         400
 sphere cut out from bulk 
H    -0.4   -0.1   -0.7
N    -1.2    0.5   -0.8
C    -1.0    1.8   -0.2
H    -0.9    1.7    0.9
H    -2.1    0.1   -0.5
I     1.8   -1.4   -0.3
H    -0.1    2.3   -0.5
H    -1.3    0.7   -1.9
H    -1.9    2.5   -0.4
H     0.2   -3.2    0.4
H    -2.2   -2.7    0.4
I     0.5    0.8    3.5
P     3.4    0.4    2.0
N    -0.5   -3.9    0.8
C    -1.8   -3.7    0.1
I     2.8    3.1    0.3
H    -1.7   -3.8   -0.9
H    -0.5   -3.8    1.8
I    -4.3   -0.6    0.2
H     1.2    2.6   -3.5
H    -0.4    3.1    3.3
I    -1.5    1.7   -4.1
H     3.1    3.1   -2.1
H    -0.1   -4.8    0.5
H    -2.5   -4.5    0.5
H    -1.4    4.3    2.5
H     3.5    2.1   -3.4
P     4.3   -2.5   -2.1
N    -0.8    4.1    3.3
I    -3.0   -2.8   -3.5
N     3.2    3.0   -3.2
C     1.9    3.3   -3.8
I    -0.8   -3.8    4.2
I    -2.8    5.0    0.5
H     0.0    4.8    3.3
I     3.6   -1.9    4.2
H     1.6    4.4   -3.6
I     5.8   -0.6    0.2
I     4.1   -0.2   -4.2
P     0.7   -1.4    5.8
H     2.1    3.3   -4.9
H    -2.4    3.7    4.6
H     3.9    3.7   -3.5
C    -1.6    4.3    4.6
I     2.7   -4.7   -3.7
P    -3.2   -0.5   -5.8
P    -5.9   -2.5   -2.1
I     5.0    2.6    3.7
H    -0.9    4.1    5.4
I    -5.1    2.6    3.7
H    -3.6   -4.7    3.6
H     4.3   -4.1    3.5
H    -1.1   -6.4   -2.7
H    -2.3   -5.0   -4.3
H    -0.0   -5.7   -4.0
I     0.6   -7.0   -0.3
P    -6.8    0.4    2.0
I     4.9   -5.1   -0.2
I    -0.7    6.2   -3.5
P     4.4    5.3    2.0
H     4.7   -5.1    2.2
H     2.7    0.8   -6.7
I    -5.3   -5.1   -0.2
H    -1.9    5.4    4.6
I    -6.1   -0.2   -4.2
C    -0.8   -6.4   -3.8
N     4.6   -5.0    3.3
I     1.9    6.4    3.7
P    -2.2    4.4   -5.9
I    -1.8   -0.4    7.5
H     3.8   -5.7    3.5
I    -0.6   -1.6   -7.6
H    -6.7    2.1   -3.4
N    -2.1   -6.0   -4.5
H    -5.5   -5.1    2.2
C    -4.3   -5.4    3.9
H    -4.9    1.8    6.0
H    -7.1    3.1   -2.1
H    -5.9   -4.1    3.5
P    -3.1    7.2   -1.8
H    -6.2    3.7   -3.5
I    -7.4    3.1    0.3
P    -5.8    5.3    2.0
I    -6.6   -1.9    4.2
H     8.1    0.1   -0.5
N    -5.6   -5.0    3.3
H     5.3    1.8    6.0
N    -7.0    3.0   -3.2
H     2.0   -5.3   -6.0
H    -3.9    1.0    7.2
I    -4.7    5.4   -4.1
C     2.6    1.0   -7.8
H     1.7    1.6   -8.0
I     2.3    0.3    8.0
P     3.4   -7.4   -1.8
H    -4.0   -6.4    3.6
H    -2.8   -6.7   -4.3
H     1.6   -0.7   -8.2
H    -1.9   -6.0   -5.5
I     0.7    4.1   -7.3
H     1.8   -3.4   -7.5
H     8.0   -2.7    0.4
H    -0.6   -7.4   -4.0
I     7.2   -2.8   -3.5
H    -4.4   -5.3    5.0
I    -8.4   -1.4   -0.3
I     4.2    7.6   -0.3
I    -3.9    2.2   -7.4
H     8.3    2.5   -0.4
N    -4.8    1.6    7.1
H     4.5    1.1    7.4
I     5.5    5.4   -4.1
H     3.0    7.2   -4.0
H    -5.0   -2.7    6.7
P    -0.2   -6.5    6.0
I     2.3   -7.4    4.2
I     1.4   -4.2    7.7
H     6.6   -4.7    3.6
C     5.9   -5.4    3.9
I     7.3    5.0    0.5
N     2.5   -0.2   -8.5
H     5.2   -2.7    6.7
H     7.7   -4.5    0.5
H    -0.4    8.2    3.6
H     3.5    1.6   -8.2
H    -3.8    3.4    7.4
N     5.4    1.6    7.1
H     2.6    8.2   -2.7
N     9.0    0.5   -0.8
H     0.8    7.9   -4.3
H     3.3   -0.8   -8.4
N     1.9   -5.5   -7.0
H     8.9    0.7   -1.9
P     7.0   -0.5   -5.8
C     8.4   -3.7    0.1
I    -1.0    4.0    8.2
I    -1.8   -8.2    3.7
H    -3.8   -2.3    8.0
C     2.4   -4.3   -7.8
H     0.9   -5.7   -7.2
H    -6.3   -5.7    3.5
H     5.7   -5.3    5.0
H     3.4   -4.1   -7.6
H     8.5   -3.8   -0.9
H    -5.7    1.1    7.4
C     9.2    1.8   -0.2
I    -4.3    7.2    4.2
C     2.8    8.2   -3.8
H     9.3    1.7    0.9
H     4.7   -1.6    8.1
C    -4.9   -2.4    7.8
C    -4.7    2.9    7.8
P     0.8   -9.3    2.0
H     6.2    1.0    7.2
H     4.6    3.5    7.6
H     6.1   -6.4    3.6
I    -7.5   -4.7   -3.7
I    -1.6    9.5   -0.2
I    -6.0    7.6   -0.3
I    -4.7   -2.2   -8.1
I     8.6    1.7   -4.1
C    -8.3    3.3   -3.8
H     7.7    3.7    4.6
C     5.3   -2.4    7.8
N     1.6    8.6   -4.5
H     9.8   -0.1   -0.7
H     2.4   -0.0   -9.6
P    -0.3    1.4    9.8
H    -5.5   -1.6    8.1
H     2.5   -6.3   -7.3
H    -2.7    8.9    3.5
H     3.8   -3.8    8.4
H    -1.9    9.5    2.2
I     6.3    2.2   -7.4
C     5.5    2.9    7.8
H    -9.0    2.6   -3.5
I     5.4   -2.2   -8.1
H    -8.1    3.3   -4.9
C    -0.7    9.2    3.9
H    -7.4    0.8   -6.7
H    -5.6    3.5    7.6
I    -1.5   -6.0   -7.9
I    -4.3   -8.4   -3.5
I    -3.1   -6.0    7.5
H     8.8    4.3    2.5
I     5.9    7.2    4.2
P     7.0    7.2   -1.8
I     1.9   -9.2   -4.1
H     2.3   -4.5   -8.9
P    -6.8   -7.4   -1.8
H     1.1   10.1    0.5
H    -8.5    4.4   -3.6
H     7.8   -5.0   -4.3
N    -2.0    9.6    3.3
H    -4.5    2.7    8.9
I    -9.7    0.8    3.5
H     1.7    8.6   -5.5
I     3.7   -9.6    0.5
H    10.1    2.3   -0.5
H     3.5    9.7    0.5
H     3.6    8.9   -4.0
H     6.4    3.4    7.4
H   -10.0   -3.2    0.4
N     4.8   -3.6    8.6
N     9.7   -3.9    0.8
H     6.3   -2.3    8.0
H   -10.3    2.3   -0.5
H     9.6   -3.8    1.8
H     1.3    9.6   -4.3
H     0.1    9.9    3.6
H   -10.5   -0.1   -0.7
H    -0.8    9.3    5.0
H    -4.8   -4.4    8.3
P    -2.2   -3.3   -9.8
P     3.4    8.1    6.0
C     8.6    4.3    4.6
H    -6.7    1.6   -8.2
N    -5.4   -3.6    8.6
H     9.7    3.1    3.3
N     9.4    4.1    3.3
H     7.3   -6.7   -4.3
I    -2.4    6.7   -8.1
I     3.6    6.0    8.3
P     8.0    4.4   -5.9
H     5.6    2.7    8.9
I     5.9   -8.4   -3.5
H     5.4   -4.4    8.3
H    -6.8   -0.8   -8.4
H    10.4   -3.2    0.4
H    -7.1    7.2   -4.0
C    -7.6    1.0   -7.8
I     9.3   -3.8    4.2
H     8.3    5.4    4.6
H    -6.7   -4.1   -7.6
H     1.0   -4.2   10.1
H    -3.6   -9.8    3.3
H    -2.0  -10.2   -3.6
H     1.9   10.8   -0.9
N     8.1   -6.0   -4.5
C     1.8   10.9    0.1
I    -8.3    6.4    3.7
H    -3.8    2.3  -10.2
H    -6.4   -3.8    8.4
N     3.2   10.7    0.8
H    10.1   -4.8    0.5
I     8.3   -0.4    7.5
I    -3.9    9.9   -3.7
P    -9.5   -1.4    5.8
I    10.7    0.8    3.5
H   -11.1    1.7    0.9
I    -7.9    0.3    8.0
H     4.7   -9.2    4.6
H     4.9   -3.4    9.6
H    -2.3   10.5    3.5
C   -11.2    1.8   -0.2
H     3.1   10.8    1.8
N   -10.7   -3.9    0.8
H   -10.3   -4.8    0.5
H    -8.1   -5.3   -6.0
N   -11.4    0.5   -0.8
I     0.5    8.6    7.5
H     9.1   -6.4   -2.7
H     0.3  -10.9   -3.5
H    -5.2   -3.4    9.6
P     0.5    6.3   -9.6
N    -7.7   -0.2   -8.5
H     9.3    4.1    5.4
H   -10.7   -3.8    1.8
H    -7.6    8.2   -2.7
I    -0.9  -11.5    0.3
H   -10.6    3.1    3.3
P     0.7    6.2    9.7
I    -6.5   -9.6    0.5
H   -11.5    0.7   -1.9
H     8.3   -6.0   -5.5
C    -7.4    8.2   -3.8
I    -7.9   -7.4    4.2
H    -5.0  -10.3    2.5
H   -10.1    4.8    3.3
H    -5.5   -9.2    4.6
H    -8.5    1.6   -8.0
H    -0.5  -11.5   -2.1
H    -6.6    8.9   -4.0
H     5.2  -10.3    2.5
H    10.2    4.8    3.3
H    -4.1    8.3   -7.3
H    -8.4   -3.4   -7.5
H     0.6   -3.2   11.3
H    -6.7    9.7    0.5
C    -7.8   -4.3   -7.8
N    -4.4  -10.5    3.3
N     0.8   -4.2   11.1
I     2.2    8.6   -7.9
I     9.5    6.2   -3.5
I    -9.6   -7.0   -0.3
H    -8.6   -0.7   -8.2
I    -3.2    1.7   11.4
I     7.0   -6.0    7.5
C     9.3   -6.4   -3.8
I     2.8   10.8    4.2
I     0.7   -3.7  -11.3
H    -4.5    9.3   -6.0
I    -0.0   -8.6    8.3
H     1.5   11.9    0.4
C    -1.7  -11.2   -3.8
N    -0.4  -11.6   -3.2
I    11.9   -1.4   -0.3
I     4.1   -7.9   -8.1
H     3.8   11.4    0.4
I     2.1    0.8  -11.9
I     1.4    3.5   11.5
I    -0.1   -1.0   12.1
H     7.5    8.9    3.5
I    -6.6    6.0    8.3
N    -8.3   -5.5   -7.0
C    -4.5    2.5  -11.0
H    11.3    2.6   -3.5
N   -11.0    4.1    3.3
H     4.8    1.8  -11.0
P    -6.8    8.1    6.0
H     6.4    2.3  -10.2
H   -12.2    0.1   -0.5
I     9.5   -1.6   -7.6
I     6.3    9.9   -3.7
C     5.0  -10.3    4.6
H   -12.0    2.5   -0.4
H     0.1   -4.8   11.3
H     6.6   -9.8    3.3
H    -7.7   -6.3   -7.3
I     0.7   11.8   -3.5
H    10.1   -5.7   -4.0
I     8.4   -8.2    3.7
H    -7.8   -0.0   -9.6
I    -8.7   -4.2    7.7
H     4.5    8.9   -7.2
P    10.8   -1.4    5.8
I   -11.0   -3.8    4.2
H   -10.2   -5.7   -4.0
C    -5.2  -10.3    4.6
H    -5.3    1.8  -11.0
N     5.8  -10.5    3.3
I    -2.4   -1.0  -12.1
N    -4.6    9.1   -7.0
H    -1.6  -11.3   -4.9
H     5.7    9.3   -6.0
H    -4.8    3.5  -11.0
H   -11.9   -3.8   -0.9
I   -11.7    1.7   -4.1
P    -2.3   12.1   -2.1
H     4.1  -10.9    4.6
C   -12.0   -3.7    0.1
H     2.9   -3.9   11.6
H   -11.5    4.3    2.5
P     4.4  -10.2   -5.9
H    -4.1  -11.5    3.3
H     6.1    8.3   -7.3
I     1.4  -12.0    3.7
H   -12.3   -2.7    0.4
H    -4.5  -10.5    5.4
C     5.7    2.5  -11.0
I    -9.5    4.1   -7.3
H    -2.5  -12.0   -3.5
H    -7.9   -4.5   -8.9
H     5.4    3.5  -11.0
I     8.5    9.5   -0.2
N     5.5    9.1   -7.0
H     9.6   -7.4   -4.0
H    -5.6    8.9   -7.2
I    -6.0   -7.9   -8.1
I    -1.0    4.5  -11.9
H    -3.3    1.3  -12.3
H     8.3    9.5    2.2
N    -7.0   10.7    0.8
H     5.0    5.1   10.7
I    10.8   -7.0   -0.3
H    -3.7  -12.3   -0.5
C     2.1   -4.6   11.8
I     3.0    5.3  -11.4
H    -2.9    2.9  -12.3
I     9.2    4.0    8.2
H    -5.2    5.1   10.7
N    -8.6    8.6   -4.5
I   -10.9    6.2   -3.5
H   -11.1    4.1    5.4
H    -7.1   10.8    1.8
H    -0.1  -12.5   -3.4
N     8.2    9.6    3.3
H     4.7  -12.1   -0.4
N    -3.7    2.3  -12.3
H    -9.4    7.9   -4.3
I    -8.3   -9.2   -4.1
H     2.3   -5.6   11.6
P     7.9   -3.3   -9.8
H    -6.3   11.4    0.4
H    -9.3   -5.7   -7.2
P    -3.1   -8.3   -9.6
I     7.8    6.7   -8.1
H     5.6  -10.5    5.4
I    -4.6   -2.9   11.9
H    11.8    4.4   -3.6
