         400
 sphere cut out from bulk 
H    -0.1    0.7   -1.4
H     0.1    1.6    0.8
C    -0.3    1.7   -1.2
N     0.4    2.1   -0.0
H     1.4    2.0   -0.2
I     1.8   -1.5    0.9
H    -1.4    1.9   -1.0
H    -0.0    2.4   -2.1
H     0.3    3.1    0.2
I    -2.6   -2.2    0.4
I    -1.7    1.5    3.0
P    -0.1   -3.7   -0.7
H     0.8   -1.5    3.3
I    -0.2   -1.9   -3.3
H    -0.3   -0.5    4.0
H     3.2   -0.8   -2.9
N     0.4   -1.2    4.2
I     4.2    2.0   -0.5
P    -4.4   -0.1    2.0
H    -4.3   -1.1   -1.8
P     4.5   -0.1    2.0
H     1.1   -0.8    4.8
I     2.7    2.0    3.7
C     4.0   -1.5   -2.7
H     4.6   -1.1   -1.8
H     3.6   -2.5   -2.5
I    -4.7    2.0   -0.5
H    -1.1   -2.8    4.2
I     2.0    2.1   -4.3
H    -3.2   -2.1   -3.8
C    -0.3   -2.3    4.9
H    -3.7   -0.5   -4.1
I    -2.5    1.6   -4.7
I     0.3    5.4    1.9
C    -4.9   -1.5   -2.7
N    -4.0   -1.5   -3.9
I    -1.9    5.1   -2.0
P     0.1    0.1   -5.8
P     0.1    3.6    4.6
I     2.5   -5.1   -1.9
H     4.1    4.2    1.1
I     0.3   -5.7    1.9
H     0.5   -3.1    5.1
H    -0.7   -2.0    5.8
H     2.9    5.2    1.8
H    -3.1   -5.3    1.7
H    -5.2   -2.5   -2.5
N     4.9   -1.5   -3.9
H    -4.8    4.2    1.1
H    -5.7   -0.8   -2.9
H    -4.3   -4.2    2.4
I    -1.9   -5.9   -2.0
H     3.8   -5.4    0.4
I    -4.3   -1.9    4.6
N     3.9    5.2    1.3
H     4.6   -4.2    2.4
H     4.3   -1.8   -4.7
I     6.3   -2.2    0.4
H     5.2   -0.5   -4.1
P    -4.4    3.8   -3.3
P     4.5    3.8   -3.3
I     4.6   -1.9    4.6
H    -3.0    5.8    1.7
I     2.6    6.0   -1.9
H     2.9   -5.8    1.8
H    -4.6   -1.8   -4.7
H     3.8    5.7    0.4
H     0.5    4.4   -5.4
C    -4.0   -5.2    2.2
N     3.8   -5.9    1.3
H     5.7   -2.1   -3.8
H     1.1   -4.3   -5.7
H    -0.7   -5.5   -4.7
H    -0.7    5.5   -4.7
H    -4.0    5.3    3.2
I    -7.1   -1.5    0.9
N    -5.0    5.2    1.3
I    -0.2    1.7    7.1
C    -4.0    5.8    2.2
H     4.3    1.8    5.7
P    -0.0    7.4   -0.7
H    -5.1   -5.4    0.4
I    -6.2    2.0    3.7
I     2.7   -1.6   -6.8
C     4.9   -5.2    2.2
H    -4.6    1.8    5.7
H    -3.2    1.4    6.7
C    -0.2    5.2   -5.6
H    -5.1    5.7    0.4
H    -0.3   -4.0   -6.5
H    -7.4    2.0   -0.2
H    -4.0   -5.8    3.2
H     7.5    1.9   -1.0
N    -5.0   -5.9    1.3
H     4.9    5.3    3.2
N     0.4   -4.7   -6.3
H     0.2   -7.9    0.2
H    -1.0    4.8   -6.3
C     4.9    5.8    2.2
I     7.2    1.5    3.0
H    -3.7    3.0    6.4
I    -1.7   -2.1   -7.5
N    -4.0    2.0    6.6
H     5.8   -5.3    1.7
H     4.1   -6.8    1.1
H    -6.0    5.2    1.8
I     6.4    1.6   -4.7
I    -2.5    5.1    5.8
C    -0.3   -5.9   -5.6
H     4.9   -5.8    3.2
I    -6.3   -5.1   -1.9
I     1.9   -5.4    6.2
H     5.9    5.8    1.7
H    -4.3    6.8    2.4
H    -4.8   -6.8    1.1
N     4.9    2.0    6.6
I    -6.9    2.1   -4.3
H    -4.0    1.7   -7.3
H     0.5   -6.6   -5.4
H    -6.0   -5.8    1.8
H     4.6    6.8    2.4
I     2.0    5.7    6.2
I    -2.5   -5.9    5.8
H     3.2    2.7    7.6
N    -8.5    2.1   -0.0
P     0.1   -7.4    4.6
I     0.3    1.8   -8.6
H     5.2    3.0    6.4
C     8.5    1.7   -1.2
H     0.8   -5.0   -7.2
H     3.7    1.0    8.0
H    -8.1   -1.5    3.3
I    -6.3    6.0   -1.9
H     1.2    6.7   -5.7
H     8.8    0.7   -1.4
N     0.4   -8.9   -0.0
H     5.7    1.4    6.7
N     0.4    6.3   -6.3
H    -0.1   -8.7   -2.1
H    -1.1   -6.3   -6.3
I     7.0    5.1   -2.0
H    -8.8    1.6    0.8
H     4.9    1.7   -7.3
C     4.0    2.0    7.8
I    -1.9   -2.4    8.5
P     4.4   -7.2   -3.3
I    -4.3   -5.4   -5.9
P    -4.5   -7.2   -3.3
I     2.6   -1.5    8.6
H     1.4   -9.1   -0.2
H    -7.8   -0.8    4.8
H    -9.0    0.7   -1.4
H     9.0    1.6    0.8
H    -8.6    3.1    0.2
I    -4.3    5.6   -5.9
P     4.4   -3.7    7.2
I     4.6   -5.4   -5.9
P    -4.5   -3.7    7.2
I    -2.6    8.9    0.4
H    -1.4   -9.1   -1.0
I    -6.2   -1.6   -6.8
H     7.8   -2.8    4.2
H     2.9    1.7   -8.7
I     4.6    5.6   -5.9
I     7.0   -5.9   -2.0
H    -1.0    8.3    4.2
C    -0.4   -9.3   -1.2
H     0.9    6.0   -7.2
H     8.9    2.4   -2.1
C    -4.9    2.0    7.8
C    -4.0    2.3   -8.3
H    -8.9    2.4   -2.1
H     0.5    7.9    5.1
H     8.6   -0.5    4.0
H     0.1   -9.4    0.8
C    -9.2    1.7   -1.2
I     8.7   -1.9   -3.3
H    -3.0    2.2   -8.8
N     9.3    2.1   -0.0
N    -8.5   -1.2    4.2
P     8.8   -3.7   -0.7
H    -5.2    1.0    8.0
H    -0.3    7.0   -6.5
H     3.7    8.5   -2.5
H     9.2    3.1    0.2
P    -9.0   -3.7   -0.7
H    -4.3    3.3   -8.1
I     1.8    9.5    0.9
I    -0.1    9.2   -3.3
P    -0.1   -0.1    9.8
I    -9.1   -1.9   -3.3
H     4.6    3.3   -8.1
H     0.1   -1.9   -9.7
C     4.9    2.3   -8.3
H    -0.1   -5.1    8.4
H    -5.7    2.7    7.6
H    -4.3    2.4    8.7
I     4.2   -9.1   -0.5
C    -0.2    8.7    4.9
H    -0.1    4.2    9.1
I     6.4    5.1    5.8
H    -9.2   -0.5    4.0
N     3.9    1.6   -9.1
I     1.9   -8.9   -4.3
H     4.6    2.4    8.7
H     0.9    9.5    3.3
I     2.7   -9.1    3.7
I    -1.7   -9.6    3.0
C     8.6   -2.3    4.9
H    -3.2    8.9   -3.8
H     8.2   -2.0    5.8
P    -4.4   -3.6   -8.5
I    -4.7   -9.1   -0.5
N     9.3   -1.2    4.2
H     4.1    0.7   -9.4
H     0.3   -0.4  -10.3
P     4.5   -3.6   -8.5
H    -0.0    5.9    8.4
H    -5.2    8.5   -2.5
I    -8.6    5.4    1.9
H    -8.4   -3.1    5.1
H     9.7   -1.5    3.3
I     6.3   -5.9    5.8
H    -0.2  -10.3   -1.4
I    -8.6   -5.7    1.9
H   -10.3    1.9   -1.0
H    10.3    2.0   -0.2
H    -4.8    0.7   -9.4
N    -5.0    1.6   -9.1
P    -8.8    0.1   -5.8
H    -7.8   -4.3   -5.7
P    -8.8    3.6    4.6
N     0.4   -1.4  -10.5
I     7.2   -2.1   -7.5
C    -9.2   -2.3    4.9
C    -0.3    5.3    9.3
H    -6.0    1.7   -8.7
N     0.4    9.8    4.2
C     4.0    9.6   -2.7
P     9.0    0.1   -5.8
I    -7.0   -5.4    6.2
P     9.0    3.6    4.6
H     5.9    2.2   -8.8
H    -0.7    9.1    5.8
I     9.2    5.4    1.9
I    -6.3   -1.5    8.6
I    10.7   -1.5    0.9
H     1.4   -1.5  -10.6
I    -2.6   -9.4   -4.7
I    -6.9    5.7    6.2
H    -8.4    4.4   -5.4
H     8.2   -5.5   -4.7
I     6.3    8.9    0.4
C    -0.4   -5.8    9.3
H    -3.7   -8.0    6.4
I     9.1   -5.7    1.9
H     8.2    5.5   -4.7
H    -4.3    9.9   -1.8
H     3.8    2.1  -10.1
I     1.8   -5.1   -9.6
H    -1.4    5.4    9.5
C    -4.9    9.6   -2.7
N    -4.0    9.5   -3.9
I    -4.3    9.1    4.6
H     3.2   10.2   -2.9
I   -10.6    1.5    3.0
H     4.6    9.9   -1.8
H    -1.4   -5.6    9.5
H     9.4   -3.1    5.1
H     7.9    4.8   -6.3
H    10.0   -0.8    4.8
H    -9.9   -2.8    4.2
P    -4.4    7.3    7.2
P     4.5    7.3    7.2
I     4.6    9.1    4.6
I     7.0   -2.4    8.5
H     5.7    8.9   -3.8
H     4.4    9.3   -4.7
H    -0.3   10.6    4.0
I    -2.6    1.4   10.9
H    -0.2   -6.8    9.1
H    -4.5    9.3   -4.7
H     1.2   10.3    4.8
I     8.7    1.7    7.1
H    -9.6   -2.0    5.8
N     4.9    9.5   -3.9
I     1.8    6.0   -9.6
H    -5.1    2.1  -10.1
H     8.6   -4.0   -6.5
C     8.6    5.2   -5.6
H     5.2   -8.0    6.4
H     0.2   -4.4   10.7
P     8.9    7.4   -0.7
N    -8.5   -4.7   -6.3
I    -6.2   -9.1    3.7
P    -8.9    7.4   -0.7
I    -9.1    1.7    7.1
I    -2.6    5.4  -10.1
H     9.4    4.4   -5.4
H     3.8   -1.8   10.9
H    -1.4   -1.6  -11.5
H     3.1   -8.3    7.6
I   -11.5   -2.2    0.4
H     4.3   -9.3    5.7
H    -7.7    6.7   -5.7
H    -8.7   -7.9    0.2
I     1.8    2.0   11.4
H    -7.5   -9.1   -0.2
N     0.4   -5.4   10.5
I    -0.2   -9.4    7.1
H     1.4   -5.5   10.3
H     1.5    5.5   10.3
H    -0.1   11.7   -1.4
C     8.6   -5.9   -5.6
I    -1.6    9.0   -7.5
P    -0.0    3.9  -11.2
H     7.8   -6.3   -6.3
H     7.4   -9.1   -1.0
H    -3.6   10.5   -4.1
I     4.2   -1.5  -11.0
H    -4.6   -9.3    5.7
C    -0.3   -1.8  -11.7
I    -2.6   -5.7  -10.1
N    -4.1   -9.0    6.6
I    10.8    2.1   -4.3
I    -7.0    9.5    0.9
C    -9.1    5.2   -5.6
N     0.4    5.7   10.5
H    -8.1   -5.0   -7.2
P    -4.3   11.0    2.0
H    -9.2   -4.0   -6.5
I     2.7    9.5   -6.8
H    -4.3   -7.7   -8.1
H    -8.4   -6.6   -5.4
H    -9.6    5.5   -4.7
I    -4.7   -1.5  -11.0
H    -9.6   -5.5   -4.7
P     4.6   11.0    2.0
H    -5.7   10.2   -2.9
H     9.1   -7.9    0.2
H     4.6   -7.7   -8.1
P    -4.3    7.4   -8.5
I   -10.8    5.1   -2.0
I    -7.0   -8.9   -4.3
P    -4.4  -11.1    2.0
P     4.5  -11.1    2.0
N     4.8   -9.0    6.6
N     9.3   -4.7   -6.3
I     4.2   -5.5   10.0
H    -0.3  -11.5    4.0
H    -3.2   -9.6    6.7
I     4.2    5.5   10.0
P     4.6    7.4   -8.5
H     7.9    8.3    4.2
H    -5.1   -1.8   10.9
H    -0.1   -2.8  -11.9
C    -9.2   -5.9   -5.6
I    -8.6    1.8   -8.6
I    -1.9    8.7    8.5
N    -8.5    6.3   -6.3
H    10.0   -4.3   -5.7
N    -8.5   -8.9   -0.0
I     6.3   -9.4   -4.7
I     7.2   -9.6    3.0
I    11.6    2.0    3.7
H    -8.0    6.0   -7.2
I    -4.7    5.5   10.0
I    -4.7   -5.5   10.0
P     0.1  -10.9   -5.8
H    12.0   -0.8   -2.9
H     0.1    5.1   11.3
P    -8.8   -7.4    4.6
H     5.3   10.5   -4.1
I   -11.4    1.6   -4.7
I   -10.8   -5.9   -2.0
H    -4.0   -9.3   -7.3
P     9.0   -7.4    4.6
H     8.8   -8.7   -2.1
C     4.0   -9.0    7.8
I     0.2   -9.2   -8.6
P     0.1   11.1   -5.8
H     3.1  -11.9   -2.9
H    -0.0   -1.2  -12.5
I     0.3   -2.1   12.4
H     0.3    6.7   10.7
H    -8.4    7.9    5.1
H    -9.0   -8.7   -2.1
H    -9.9    4.8   -6.3
I    11.4   -5.1   -1.9
C     8.5   -9.3   -1.2
N     3.9   -2.3   11.8
H     0.2   12.6    0.8
H     9.4   -6.6   -5.4
I     6.3    1.4   10.9
H    -5.8   -8.3    7.6
I     9.2    1.8   -8.6
C    -4.0   -8.8   -8.3
H    -3.1   -1.7   12.2
I     1.8  -12.6    0.9
I    -1.9    1.6  -12.5
