         400
 sphere cut out from bulk 
I    -1.6   -1.6   -0.1
H     0.3    1.4   -2.1
H     1.5    0.2   -2.1
H     1.4    1.6    1.8
I    -0.5    2.8   -0.0
N     0.8    0.8   -2.7
I     2.9   -0.6   -0.1
H     0.1    0.1   -3.1
P    -3.3    1.1   -0.0
P     1.1   -3.4    0.0
H     1.1   -0.1    3.5
N     1.7    1.8    2.8
H    -0.1    1.1    3.7
C     0.9    0.9    3.8
H    -2.5   -2.6    2.2
H     2.7    1.6    2.9
C     1.5    1.5   -3.8
H     1.5    2.8    3.0
H     2.2    2.2   -3.3
I    -3.4    1.4   -3.2
I     1.4   -3.4   -3.2
H     0.8    2.1   -4.4
H     2.1    0.8   -4.4
I     1.1   -3.6    3.2
I    -3.6    1.0    3.2
H    -3.2   -1.9   -3.2
H    -2.0   -3.2   -3.2
H    -3.5   -1.6    3.2
N    -3.0   -2.5    3.2
H    -2.2   -2.4    3.9
H     1.3    1.1    4.8
I     3.9    3.8    0.1
C    -3.0   -2.9   -3.6
P     1.2    5.6    0.0
P     5.6    1.1   -0.0
H    -3.9   -3.9   -2.0
I    -6.1   -0.6   -0.1
I    -0.6   -6.1   -0.0
I    -0.7   -0.7   -6.2
H     4.3   -3.7    2.7
H    -3.0   -3.0   -4.7
I     5.3    1.0    3.2
N    -3.9   -3.9   -3.0
C    -3.8   -3.7    3.5
I    -5.0    3.8    0.1
H    -3.2    4.3    3.4
I     3.8   -5.1    0.1
I     1.2    5.4    3.2
H    -3.6    4.1   -3.3
H     4.0   -3.7   -3.3
H    -4.6   -3.7    2.7
I    -1.4   -1.4    6.2
H     5.5   -1.6    3.2
I     1.5    5.5   -3.2
H    -3.2   -4.6    3.4
I     5.6    1.4   -3.2
H    -3.9    5.0   -2.0
H     5.0   -3.9   -2.0
H    -1.9    5.7   -3.2
H     5.7   -1.9   -3.2
H    -4.9   -3.7   -3.3
H    -3.7   -4.9   -3.3
H     1.5   -6.2    3.0
N    -3.9    5.0   -3.0
N     5.0   -3.9   -3.0
H    -6.2    1.6    2.9
H    -4.2   -3.6    4.5
I    -0.9    3.0    6.4
H    -2.4    6.4    2.2
I     3.0   -0.9    6.4
C     5.1   -3.7    3.5
I    -5.1   -5.1    0.1
N     6.0   -2.5    3.2
P     1.2   -3.2   -6.4
P    -3.2    1.2   -6.4
H     6.4   -2.6    2.2
C    -3.8    5.3    3.5
H     4.4    5.2    2.7
P     1.0   -3.4    6.4
P    -3.4    1.1    6.5
H     4.7   -3.6    4.5
H     5.1    5.0   -2.0
H     4.1    5.2   -3.3
H     5.3    4.1   -3.3
H    -4.6    5.2    2.7
I    -1.2    3.7   -6.4
I    -1.5    7.4   -0.1
I     3.8   -1.3   -6.4
I     7.4   -1.6   -0.1
C    -2.9    6.0   -3.6
C     6.0   -2.9   -3.6
H     1.3   -7.3    1.8
N    -2.9    6.4    3.2
N     5.1    5.0   -3.0
H    -7.5    0.2   -2.1
H    -6.7    2.2   -3.3
H     0.2   -7.5   -2.1
H     2.2   -6.7   -3.3
H    -2.1    6.5    3.9
H    -4.8    5.2   -3.3
N     1.6   -7.2    2.8
H     5.2   -4.9   -3.3
H    -7.6    1.6    1.8
N    -7.3    1.8    2.8
H     5.8    4.3    3.4
H     5.7   -4.6    3.4
I     3.3    3.2   -6.6
H    -2.9    6.0   -4.7
H     5.9   -3.0   -4.7
H    -4.2    5.4    4.5
H     6.7   -2.4    3.9
C     5.2    5.3    3.5
H     0.7   -6.9   -4.4
H    -6.9    0.8   -4.4
H    -3.2    7.0   -3.2
I    -5.2   -1.3   -6.4
I    -1.3   -5.2   -6.4
H     7.0   -3.2   -3.2
H     2.6   -7.4    2.9
H     1.3    1.3    8.2
I     3.6    3.5    6.7
C    -7.4    1.5   -3.8
C     1.5   -7.4   -3.8
H     4.8    5.4    4.5
H     0.5    1.1   -8.4
H    -7.4    2.8    3.0
P    -7.8   -3.4    0.0
P    -3.4   -7.8   -0.0
P     1.1    5.5    6.4
P     5.5    1.1    6.5
H    -7.8   -0.1    3.5
N    -8.1    0.8   -2.7
H    -0.2   -7.8    3.7
N     0.7   -8.2   -2.7
H    -3.4    7.3    3.2
P     1.3    5.7   -6.4
P     5.8    1.2   -6.4
I    -5.9   -0.9    6.4
I    -1.0   -5.9    6.4
I     2.9    8.3   -0.1
I     8.4    2.8   -0.0
I    -7.6   -3.4   -3.2
I    -3.4   -7.5   -3.2
C    -8.0    0.9    3.8
C     0.9   -8.0    3.8
H    -8.7    1.4   -2.1
H     1.4   -8.7   -2.1
H    -7.7    1.1    4.8
H    -3.0   -3.1   -8.0
I    -7.8   -3.6    3.2
H     1.2   -7.8    4.8
C     6.1    6.0   -3.6
I    -5.4    3.5    6.7
I     3.5   -5.4    6.7
I    -3.7   -7.9    3.2
I    -5.6    3.2   -6.6
I     3.2   -5.7   -6.6
H    -8.8    0.1   -3.1
H     6.5    6.4    2.2
H     0.1   -8.8   -3.1
N     6.1    6.4    3.2
C     1.3    1.3    9.3
H    -8.1    2.1   -4.4
H     2.0   -8.2   -4.4
C     0.9    1.0   -9.4
H     0.6   -0.6    9.5
H     1.5    9.2   -2.1
H    -0.6    0.6    9.5
P    -7.7    5.6    0.0
H     9.2    1.4   -2.1
H     1.5    0.1   -9.4
P     5.5   -7.8   -0.0
H     0.2    9.1   -3.1
H     2.5    2.2   -9.0
H     1.2    8.8    3.5
H     9.1    0.1   -3.1
H     8.8    1.1    3.7
H     5.8    7.0   -3.2
H     7.1    5.7   -3.2
H     6.0    6.0   -4.7
H    -2.7   -3.9    8.5
H    -3.9   -2.6    8.5
H     5.5    7.3    3.2
H     1.1   -9.1    3.5
N     0.4    0.3    9.8
I    -1.4    7.5    6.2
I    -7.5    5.5   -3.2
I     7.5   -1.4    6.2
H    -9.1    1.1    3.7
I     5.5   -7.5   -3.2
I    -9.5    2.8   -0.0
H     2.3    1.0    9.6
H     1.1    2.3    9.6
I     2.8   -9.6   -0.1
I    -7.8    5.4    3.2
I     5.3   -7.9    3.2
N     1.8    2.2   -9.7
H    -6.8   -6.7   -3.3
H    -6.3   -7.4    2.9
N     0.9    9.7   -2.7
N     9.7    0.8   -2.7
C    -3.2   -3.2    9.1
H    -7.5   -6.2    3.0
I    -5.4   -5.4    6.7
H     0.1    1.0  -10.1
H    -2.5   -2.5    9.6
I    -3.1    1.1   -9.6
H     6.8    6.5    3.9
H    -2.6    5.0    8.5
H     1.2    3.1   -9.6
H     5.0   -2.6    8.5
I     1.0   -3.2   -9.6
C    -3.4   -3.3   -9.1
I     0.9   -3.3    9.6
I    -3.3    0.9    9.7
I    -6.0    8.3   -0.1
I    -0.6    8.2   -6.2
H    -2.8   -1.5   -9.8
I     8.2   -0.7   -6.2
I     8.3   -6.1   -0.0
H    -2.9    5.8   -8.0
H    -1.6   -2.7  -10.0
I    -5.7   -5.7   -6.6
I     7.4    7.4   -0.1
H     5.9   -3.1   -8.0
P    -7.7   -3.2   -6.4
P    -3.2   -7.7   -6.4
H     0.4   10.4   -2.1
P    -3.3   10.1   -0.0
H    10.4    0.2   -2.1
H    10.3    1.6    1.8
P    10.1   -3.4    0.0
C     9.9    0.9    3.8
C     1.0    9.9    3.8
N    -7.3   -7.2    2.8
H    -4.4   -3.1   -9.2
I   -10.5   -1.6   -0.1
N    -2.6   -2.5  -10.0
I    -1.6  -10.5   -0.1
H    10.1   -0.1    3.5
H     4.5   -3.1   -9.2
I     3.8    7.7   -6.4
I     7.7    3.7   -6.4
I     8.0    3.0    6.4
I     3.1    8.0    6.4
H    -0.1   10.1    3.7
H    -7.6   -7.3    1.8
H    -3.2   -4.4   -9.3
P    -7.9   -3.4    6.4
P    -3.5   -7.9    6.5
H    -3.1    4.6   -9.3
H     1.5   10.5    1.8
H     0.3    0.3   10.8
H     9.7    2.1   -4.4
H     2.1    9.7   -4.4
H     2.2    2.1  -10.6
I    -3.5   10.0    3.2
I    10.0   -3.6    3.2
N    10.6    1.8    2.8
C    -3.3    5.6   -9.1
C     5.6   -3.3   -9.1
C    -7.5   -7.4   -3.8
C    -3.1    5.8    9.1
C     5.7   -3.2    9.1
C    10.5    1.5   -3.8
C     1.6   10.5   -3.8
N     1.8   10.7    2.8
I     0.9    5.7    9.6
I     5.7    0.9    9.7
H     6.3   -3.9    8.5
I    -5.1    7.7   -6.4
H    10.5    2.8    3.0
H    -6.4    2.2   -9.0
H     1.3   10.1    4.8
H    -3.9    6.3    8.5
H    -7.6    1.3    8.2
H     2.8   10.5    2.9
I     7.7   -5.2   -6.4
H     1.2   -7.7    8.2
I     1.1    5.7   -9.6
I     5.8    1.1   -9.6
I    -3.3   10.3   -3.2
I    10.3   -3.4   -3.2
H    10.2    1.1    4.8
I    -9.6   -6.1   -0.0
H     1.2   -5.9   -9.6
I    -6.2   -9.6   -0.1
H     2.5   -6.7   -9.0
I    -9.6   -0.7   -6.2
H     0.4   -7.8   -8.4
I    -0.8   -9.7   -6.2
P    -7.6    5.7   -6.4
P     5.7   -7.7   -6.4
P    -7.8    5.5    6.4
H     4.4    4.4    9.7
P     5.4   -7.9    6.5
N    -3.9   -3.9   10.1
P    10.1    5.6    0.0
H    -8.2   -6.9   -4.4
P     5.7   10.1   -0.0
H    -6.9   -8.2   -4.4
H    -4.5    4.4    9.7
H     4.3   -4.6    9.7
H    -3.5  -10.6    3.2
H     6.0    5.8   -8.0
H    -2.9   -2.7  -11.0
H     6.2   -1.5   -9.8
H    -4.4    5.8   -9.2
H    -4.6   -4.6    9.7
H    -8.7   -7.5   -2.1
H    -7.6   -8.7   -2.1
H    -6.6    1.0    9.6
H     1.0   -6.6    9.6
H     6.3    5.0    8.5
H     5.1    6.3    8.5
I    -0.5   11.8   -0.0
H     4.6    5.8   -9.2
H    -2.4    6.5    9.6
H     6.4   -2.5    9.6
H     5.8   -4.4   -9.3
I     5.4   10.0    3.2
I    11.8   -0.6   -0.1
H   -10.9   -3.2   -3.2
H    -3.3  -10.9   -3.2
I    -5.8    8.0    6.4
I     8.0   -5.9    6.4
H     2.3   11.1   -3.3
H    11.2    2.2   -3.3
H    -1.5    6.3  -10.0
H    11.0    0.8   -4.4
H     0.9   11.0   -4.4
H     5.8    4.6   -9.3
N    -8.2   -8.2   -2.7
I    10.1    5.4    3.2
N     1.7   -6.8   -9.7
H   -11.5   -2.6    2.2
H    -8.5    1.1   -8.4
N    -3.9    5.0   10.1
N     5.0   -3.9   10.1
H    -7.4    9.2   -2.1
H    -7.7   -7.8    4.8
C    -8.1   -8.0    3.8
H    -2.6  -11.5    2.2
H     9.2   -7.5   -2.1
H    -7.4    0.1   -9.4
H   -11.1   -2.4    3.9
C    -7.6    1.3    9.3
C     5.6    5.6   -9.1
C     1.3   -7.6    9.3
H    -3.3   -4.4   10.8
H    -3.2    4.5   10.8
H    -4.4   -3.3   10.8
H    11.6    1.6    2.9
N     6.3   -2.5  -10.0
H     4.5   -3.3   10.8
I    -9.8    3.0    6.4
I     3.0   -9.9    6.4
I   -10.4   -1.4    6.2
N    -2.5    6.5  -10.0
I    -1.5  -10.4    6.2
I    10.4    5.5   -3.2
I     5.7   10.3   -3.2
H     1.6   11.7    3.0
C     5.8    5.8    9.1
N    -7.2    2.2   -9.7
H    -2.3  -11.4    3.9
H    -7.7    8.8    3.5
N    -3.0  -11.5    3.2
H     8.7   -7.8    3.7
H     5.4  -10.6    3.2
C     0.8   -7.9   -9.4
P   -12.3    1.1   -0.0
I     7.6    7.5    6.2
P     1.1  -12.3    0.0
P    10.0   -3.4    6.4
P    -3.4   10.0    6.5
C    -8.0    1.0   -9.4
N     5.1    5.0   10.1
P    -3.1   10.2   -6.4
P    10.2   -3.2   -6.4
H    10.4   -6.2    3.0
H    -6.2   10.5    2.9
H    -7.9   -9.1    3.5
I   -10.1    3.7   -6.4
N   -11.9   -2.5    3.2
H    -9.1   -7.8    3.7
I     3.7  -10.2   -6.4
H    -2.7    7.5   -9.8
H    -7.9    2.3    9.6
H     2.3   -7.9    9.6
H     8.3    0.6    9.5
H     9.7   -6.9   -4.4
H     0.6    8.3    9.5
H    -6.8    9.7   -4.4
H     9.4    1.1   -8.4
H   -10.8    5.7   -3.2
H     7.4   -2.7  -10.0
H    -8.4   -0.6    9.5
H     5.6  -10.9   -3.2
H    -0.7   -8.4    9.5
