         400
 sphere cut out from bulk 
I     1.6    1.4   -0.3
I    -1.8   -1.2   -0.4
P     0.6   -0.8    2.0
P     0.6   -0.8   -2.4
I     2.1   -2.8   -0.3
H    -2.8    2.0    1.1
H    -3.3    1.0   -1.1
H     0.9    3.5    1.0
I    -1.3    1.1    3.5
C    -3.9    1.8    0.7
N    -3.9    1.8   -0.8
H    -3.4    2.7   -1.1
H    -4.3    0.9    1.1
H    -3.4   -2.4    1.7
I    -1.0    1.0   -4.4
N     0.7    4.4    1.4
H     4.2    1.7   -1.1
H    -0.2    4.7    1.0
I     3.3   -0.2    3.5
H    -3.5   -2.4   -2.5
I    -0.2   -3.4    3.6
H    -0.2    3.8    3.2
H     4.8    0.9    1.1
H     1.0   -5.1   -0.2
H    -4.8    1.7   -1.1
C     0.7    4.4    2.9
H     1.6    3.9    3.2
H    -4.5    2.7    1.1
H     1.4    5.1    1.0
I     3.0   -0.5   -4.5
H     4.6    2.7    1.1
I    -0.3   -3.1   -4.4
C    -3.9   -3.3    2.1
C     5.2    1.8    0.7
N     5.2    1.8   -0.8
H    -3.3   -4.2    1.7
I    -2.3    5.1   -0.3
H     4.1   -3.5    1.7
H    -0.1   -5.3   -2.4
H    -2.8   -3.3    3.9
H    -3.3   -4.2   -2.5
C    -3.9   -3.4   -2.8
H     5.7    1.0   -1.1
H    -0.8    3.4   -4.8
H     4.1   -3.5   -2.5
H     1.4    4.2   -4.1
N     0.6   -6.0   -0.5
H    -0.4   -6.1   -0.2
N    -3.8   -3.3    3.5
H    -4.9   -3.5    1.7
H     0.6    5.4    3.3
H     5.6    2.7   -1.1
H    -4.3   -2.5    3.9
H     5.6   -2.4    1.7
C     0.6   -6.0   -2.0
H    -2.9   -3.3   -4.7
H     1.6   -5.8   -2.3
C     5.2   -3.3    2.1
H     5.5   -2.4   -2.5
H    -4.9   -3.5   -2.5
H     4.7   -2.5    3.9
H     6.2    2.0    1.1
H     1.5    3.3   -5.6
C     1.1    4.2   -5.1
N    -0.3    4.3   -5.2
I    -5.7   -0.2    3.5
C     5.1   -3.4   -2.8
N    -3.9   -3.4   -4.3
H    -0.4   -0.8    6.8
H     1.1    0.1    6.8
H     1.2   -6.8   -0.1
P     0.6   -0.9   -6.8
P    -3.8    1.8    5.4
I    -3.0   -6.3   -0.3
H    -4.5   -2.6   -4.7
H    -0.7    5.1   -4.7
H     4.6   -2.6   -4.7
H     1.1   -1.6    6.8
N     5.2   -3.3    3.5
H    -4.3   -4.2    3.9
N     0.6   -0.7    7.1
I     4.5    4.4    3.5
I    -4.5    4.4    3.5
H    -3.0    1.8   -6.4
I     2.8    6.7   -0.2
I     7.2   -1.2   -0.4
H     5.8   -4.2    1.7
H     0.3   -7.0   -2.3
H     4.7   -4.2    3.9
I    -7.0   -2.8   -0.3
N     5.1   -3.4   -4.3
H     5.8   -4.2   -2.5
I    -6.1   -0.5   -4.5
H    -0.7    4.4   -6.2
I    -7.5    1.4   -0.3
H    -4.4   -4.3   -4.6
H     1.5    5.1   -5.6
P     5.2    1.8    5.4
I    -3.0   -0.8    7.1
H    -4.4    0.7   -6.5
H     4.7   -4.3   -4.6
I    -4.5    4.7   -4.4
I     4.6    4.7   -4.4
I     2.5    2.4    7.2
H     4.6    0.7   -6.5
P     0.7   -6.0    5.3
H     6.2   -3.3    3.9
C    -4.0    1.7   -6.8
I     3.4   -6.5    3.7
H     4.4    2.5   -6.4
H    -4.6    2.5   -6.4
P    -3.8    7.1    2.1
H    -0.0   -5.1   -6.5
P    -3.8    7.0   -2.3
H     6.1   -3.3   -4.7
I    -2.0    3.8    7.2
I     6.8    5.1   -0.3
I    -1.1    7.7    3.5
I     1.4    1.8   -8.2
I     7.8    1.1    3.5
C     5.1    1.7   -6.8
I     2.4   -4.0    7.3
I    -2.1   -1.4   -8.3
C     0.6   -0.7    8.6
P    -8.4   -0.8    2.0
I    -1.2   -7.9    3.5
I     6.1   -6.3   -0.3
I     3.6   -6.7   -4.4
I    -1.4    7.5   -4.4
P    -8.4   -0.8   -2.4
H     0.4    8.5   -2.3
H    -8.1    3.5    1.0
H     1.3    8.8   -0.1
H     1.6   -5.9   -6.5
H     0.0    0.1    8.9
H    -7.4    3.9    3.2
H     6.1    1.8   -6.4
P     5.3    7.1    2.1
P     5.2    7.0   -2.3
H     0.2   -1.7    9.0
C     0.5   -6.0   -6.9
H     1.7   -0.6    8.9
I     2.4   -2.9   -8.3
I    -6.2    6.7   -0.2
H    -7.6    5.1    1.0
I     8.0    1.0   -4.4
I     2.8   -8.8   -0.2
I    -2.0   -5.4    7.3
I    -1.5   -8.1   -4.4
H    -3.4    0.9   -8.6
N    -4.0    1.7   -8.3
I    -5.6   -6.5    3.7
I     6.0   -0.8    7.1
H     0.1   -6.9   -6.5
H    -8.0   -5.1   -0.2
H    -0.3    9.5   -0.2
N    -8.3    4.4    1.4
P    -3.9   -8.5    2.1
H    -7.6    4.2   -4.1
H    -3.5    2.6   -8.6
N     0.7    9.6   -0.5
P    -3.9   -8.5   -2.3
I    -5.5   -6.7   -4.4
H     4.1    1.7   -8.6
H    -7.4   -5.8   -2.3
P     0.7    4.4    8.7
I    -2.9    9.3   -0.3
C     0.7    9.5   -2.0
I    -2.0    4.9   -8.2
H    -3.4    6.1    6.9
C    -8.3    4.4    2.9
N     5.1    1.7   -8.3
P     9.7   -0.8    2.0
P     9.6   -0.8   -2.4
I    -6.5    2.4    7.2
H    -7.6    3.3   -5.6
H     8.8    4.7    1.0
H    -4.9    1.7   -8.6
I     8.8   -3.4    3.6
P    -3.9   -3.3    8.7
H     1.7    9.7   -2.3
H     8.3    3.4   -4.8
P     5.2   -8.5    2.1
H     8.9    3.8    3.2
H     1.0   -5.1   -8.7
P     5.1   -8.5   -2.3
I     8.7   -3.1   -4.4
I     1.5    7.1    7.3
H     5.6    0.9   -8.6
N     0.5   -6.0   -8.4
C    -7.9    4.2   -5.1
N    -8.4   -6.0   -0.5
H    -7.9   -6.8   -0.1
I     3.5    9.1    3.7
H    -9.3    4.7    1.0
H    -7.9    0.1    6.8
H    -9.2    3.8    3.2
I    -9.2   -3.4    3.6
P    -3.9    7.0   -6.7
H    -8.4    5.4    3.3
H     1.1   10.5   -0.2
H     5.6    2.6   -8.6
H    -7.9   -1.6    6.8
C    -8.4   -6.0   -2.0
H     8.7   -6.1   -0.2
H     0.0   10.3   -2.4
H    -0.5   -6.0   -8.7
I     3.7    8.9   -4.4
H    10.0    3.5    1.0
I    -6.6   -4.0    7.3
H     1.3  -10.5    1.0
H     4.2    7.0    6.9
H    -7.5    5.1   -5.6
P     5.1   -3.3    8.7
I     2.4    6.4   -8.2
H     9.0   -5.3   -2.4
I    10.6    1.4   -0.3
H     0.5  -10.2    3.3
I    -2.4  -10.5   -0.3
N    -3.9    7.0    7.2
I     7.0    3.8    7.2
I    -3.1   -6.0   -8.4
N     9.8    4.4    1.4
H    -9.1   -5.3   -2.4
H     5.7    6.1    6.9
I    -9.4   -3.1   -4.4
H     0.2    8.7   -6.5
I    -6.3   -8.8   -0.2
H     8.3    5.1   -4.7
I     6.9   -1.4   -8.3
P    -8.5   -0.9   -6.8
H    -4.8    7.0    6.9
H    -0.3  -10.9    1.0
H    -3.5   -7.7    6.9
I   -10.9   -1.2   -0.4
I   -10.3    1.1    3.5
P     0.7    9.6    5.3
H    -3.4    7.8    6.9
N     8.7    4.3   -5.2
P     5.1    7.0   -6.7
I   -10.0    1.0   -4.4
I    -6.6   -2.9   -8.3
H     8.7   -0.8    6.8
N    -8.4   -0.7    7.1
C     9.7    4.4    2.9
H    -0.7   -6.0    9.3
P     0.7    4.3  -10.2
H     1.0   -6.8   -8.7
I     6.2    9.3   -0.3
H    -9.4   -6.1   -0.2
H    10.0   -5.1   -0.2
N     0.6  -11.2    1.4
H     8.4    4.4   -6.2
I    -5.6    9.1    3.7
I    -0.2    2.1   11.1
I     1.4   -8.5    7.3
N     5.2    7.0    7.2
I    -5.4    8.9   -4.4
H     1.6   -5.2    9.9
P    -3.9   -3.4  -10.1
N     9.6   -6.0   -0.5
I    -7.6    1.8   -8.2
H    -2.8    1.9   10.8
H    -9.8    3.4   -4.8
H    -0.8  -10.4   -4.7
I     7.0   -5.4    7.3
H    -8.8   -7.0   -2.3
I    11.1   -2.8   -0.3
H    -7.5   -5.9   -6.5
H     9.7    5.4    3.3
N    -9.4    4.3   -5.2
I    -1.4   -2.8   11.1
C     9.7   -6.0   -2.0
I     7.6    7.5   -4.4
P    -8.4   -6.0    5.3
C     0.6  -11.2    2.9
P    -4.0   -8.5   -6.7
I     8.0    7.7    3.5
H    -7.4   -0.6    8.9
H    -9.4   -0.8    6.8
H    -4.3    6.0    9.0
I     7.9   -7.9    3.5
H    10.5    5.1    1.0
H    -4.3    1.0   10.8
H    -7.8    8.8   -0.1
I     3.7   -1.4   11.1
H     4.1   -8.6    6.9
H     5.6   -7.7    6.9
C    -3.9    6.9    8.7
P     5.1   -3.4  -10.1
H     4.7    6.0    9.0
H    10.7    3.9    3.2
H     1.7    9.7   -6.5
P     9.6   -0.9   -6.8
C     0.6    9.6   -6.9
H    -2.9    7.0    9.1
I     7.0    4.9   -8.2
H     5.7    7.8    6.9
I     7.6   -8.1   -4.4
H     4.8    1.0   10.8
I     5.9   -6.0   -8.4
H     9.3   -7.0   -2.3
N    -4.0   -8.6    7.2
H     1.5  -10.4   -5.6
H    -3.2   11.4    1.7
N    -0.3   -6.0   10.3
N    -3.8    1.9   11.2
H    -9.7    5.1   -4.7
H    -4.4    2.7   10.8
H    10.5    4.2   -4.1
P     5.0   -8.5   -6.7
H    -0.7   -5.2   10.8
N     9.7   -0.7    7.1
C    -8.4   -0.7    8.6
H    -4.9   -8.6    6.9
H     4.7    2.7   10.8
H   -11.9    2.0    1.1
H    -3.2   11.4   -2.5
C     1.1   -6.1   10.4
C    10.2    4.2   -5.1
H     1.5   -7.0    9.8
H     0.8  -12.1    1.0
H    -3.4   -9.4    6.9
H     1.4  -11.4   -4.1
H     1.5  -11.7    3.2
H    10.2    0.1    6.8
H    -0.3  -11.8    3.2
H     9.0   -5.1   -6.5
H    10.2   -6.8   -0.1
H     0.5    0.1  -12.2
C     5.1    6.9    8.7
H    -9.7    4.4   -6.2
I    -1.2    2.4  -12.0
H    -9.1   -5.1   -6.5
I    -6.6    6.4   -8.2
H    10.2   -1.6    6.8
N     5.1   -8.6    7.2
H     0.0   10.4   -6.5
H     1.1    8.7   -8.7
I     3.1    4.7   11.0
H    -0.3   -1.5  -12.3
I    -5.4   -1.4   11.1
H    -8.7    8.5   -2.3
H    10.7   -5.8   -2.3
H    10.5    3.3   -5.6
H    -7.3    9.7   -2.3
I     6.7  -10.5   -0.3
N    -0.4  -11.3   -5.2
I   -11.3    5.1   -0.3
H     1.5   -1.3  -12.3
H   -12.4    1.0   -1.1
C    -8.5   -6.0   -6.9
N     5.2    1.9   11.2
C     1.1  -11.3   -5.1
I     4.4  -11.2    3.5
I     4.5  -10.8   -4.4
I     2.3   -9.2   -8.2
I    -4.6  -10.8   -4.4
P     9.7   -6.0    5.3
I    -4.6  -11.2    3.5
H     6.2    1.9   10.8
I    -7.5    7.1    7.3
I    -1.9   10.1    7.3
C     0.6   -0.9  -12.6
H    -9.0    0.1    8.9
H    -8.8   -1.7    9.0
N    -8.4    9.6   -0.5
I    -0.1   12.2    3.6
N     0.6    9.6   -8.4
H    -4.2   11.4    3.9
I    -0.9    6.2   11.1
H     9.1    0.1    8.9
H    -4.5    7.7    9.1
H     4.5    7.7    9.1
I    -1.4   -4.1  -12.0
H    -0.7   -6.9   10.7
H     4.4   -7.8    9.1
I     4.4   -0.8  -12.0
H   -12.5    2.7   -1.1
H    -0.8  -11.2   -6.2
H    -3.0   -8.5    9.1
H   -12.5   -2.4    1.7
I    12.0   -0.5   -4.5
C    -8.3    9.5   -2.0
P    -8.4    4.4    8.7
H    -4.6   -7.8    9.1
I    12.4   -0.2    3.5
I    -4.6   -0.8  -12.0
I     3.4    3.8  -11.8
C    -4.0   -8.6    8.7
H     5.9   11.4    1.7
H     8.7    9.5   -0.2
H    -8.0   -5.1   -8.7
H     9.4    8.5   -2.3
H    -4.3   11.3   -4.6
H   -11.9   -3.3    3.9
H     4.2   12.1    1.7
H    -0.4    9.6   -8.7
C    -3.8   12.2    2.1
H     5.6   -9.4    6.9
