         400
 sphere cut out from bulk 
I     0.2   -0.1    0.2
H    -0.9    1.1   -1.8
P    -1.7   -2.8    0.0
N    -1.2    1.8   -2.5
P     2.9    1.7    0.0
H    -1.4    0.4    3.1
H    -0.2    1.7    3.1
H    -1.7    2.5   -1.9
H    -0.3    2.3   -2.8
H    -2.3    2.4    2.0
C    -1.2    1.4    3.5
H     1.6   -1.8    3.3
H     3.1   -1.6    2.4
C    -2.0    1.2   -3.6
H    -2.9    0.8   -3.1
H    -1.4    0.5   -4.1
H     2.1   -3.1    2.2
H     2.9   -1.5   -2.9
I    -4.3   -1.0   -0.1
N    -2.2    2.4    3.0
I     1.0    4.3    0.0
C     2.5   -2.3    2.9
I     2.6    1.8   -3.2
I    -1.5   -2.8   -3.2
H     2.0   -3.6   -2.1
I     4.6   -1.0   -0.1
I    -1.8   -3.0    3.2
I     1.0   -4.7    0.0
I     3.1    1.7    3.2
I    -3.4    3.5   -0.2
H     1.2   -3.2   -3.5
H    -1.2    1.4    4.6
H    -3.2    2.1    3.3
H    -2.0    3.3    3.3
N     2.1   -3.5   -3.2
H    -2.3    2.0   -4.2
C     3.2   -2.4   -3.4
H     4.1   -2.8   -3.0
N     3.2   -3.0    4.0
H     3.3   -2.3   -4.5
H     2.0    5.3   -2.1
H     2.4   -4.4   -3.6
P    -6.1    1.7    0.0
H    -4.8   -2.8   -3.0
H     3.6   -2.3    4.7
H     2.4    4.6   -3.6
H     2.6   -3.6    4.5
P    -1.7    6.2    0.0
I     0.4   -0.3    6.4
H    -5.8   -1.6    2.4
H     4.0   -3.5    3.7
I    -3.4   -5.5   -0.2
I     5.5    3.5   -0.2
I     0.8   -1.0   -6.4
H     2.1    5.9    2.2
N     2.1    5.5   -3.2
I    -5.8    1.7    3.2
H     6.1    0.8   -3.1
H    -6.0   -1.5   -2.9
H    -2.0   -5.7    3.3
H     1.2    5.8   -3.5
H    -1.7   -6.5   -1.9
H     5.7    2.1    3.3
H    -4.9   -3.5    3.7
I    -1.8    6.0    3.2
C    -5.7   -2.4   -3.4
P     2.7    1.6   -6.4
I    -1.5    6.2   -3.2
P    -1.5   -2.9    6.5
H    -2.3   -6.6    2.0
P    -1.8   -2.9   -6.4
I     0.1    3.5   -6.4
P     2.9    1.6    6.5
I    -6.3    1.8   -3.2
H    -0.3   -6.7   -2.8
H     6.6    2.4    2.0
C    -6.4   -2.3    2.9
H    -5.3   -2.3    4.7
I    -3.6   -0.3   -6.5
H     2.6    5.3    4.5
H    -5.6   -2.3   -4.5
N    -5.7   -3.0    4.0
N    -2.2   -6.6    3.0
N    -1.1   -7.2   -2.5
C     2.4    6.7    2.9
I     1.1    4.2    6.3
N     6.7    2.4    3.0
P     7.2   -2.8    0.0
H     4.0    5.5    3.7
H    -6.8   -3.1    2.2
I    -4.1   -1.0    6.5
I     5.5   -5.5   -0.2
H     7.2    2.5   -1.9
P     2.9   -7.3    0.0
H    -0.2   -7.3    3.1
C     6.9    1.2   -3.6
N     3.2    6.0    4.0
I     1.1   -4.8    6.3
H     4.1    6.2   -3.0
C     3.2    6.6   -3.4
H     1.6    7.2    3.3
H    -6.9   -3.6   -2.1
I    -3.4    3.5    6.5
H     7.5    0.4    3.1
I     4.8   -1.0    6.5
H     6.6    2.0   -4.2
H    -0.8   -7.9   -1.8
H    -4.9    5.5    3.7
H    -7.3   -1.8    3.3
N    -6.8   -3.5   -3.2
H    -3.1   -6.9    3.3
I     2.6   -7.2   -3.2
H     8.1    1.1   -1.8
H     6.9    3.3    3.3
N     7.8    1.8   -2.5
I     7.1   -3.0    3.2
H     3.1    7.4    2.4
I     5.3   -0.3   -6.5
H    -4.8    6.2   -3.0
I     0.1   -5.5   -6.4
C    -1.2   -7.6    3.5
H    -2.3   -7.0   -4.2
I     7.4   -2.8   -3.2
H     2.8    7.5   -2.9
H    -1.1    2.2   -8.2
H    -6.3   -3.6    4.5
C     7.7    1.4    3.5
H     7.5    0.5   -4.1
I     3.1   -7.3    3.2
H    -6.5   -4.4   -3.6
H    -2.1    0.8   -8.3
H     3.2    6.7   -4.5
H    -1.0    2.2    8.4
I    -8.7   -0.1    0.2
C    -2.0   -7.8   -3.6
H    -6.5    4.6   -3.6
I    -4.3    4.2   -6.4
I     0.2    8.8    0.2
H    -1.2   -7.6    4.6
H     3.5    6.7    4.7
I     4.6    4.2   -6.4
P    -6.0    1.6    6.5
H    -6.9    5.3   -2.1
P    -1.8    6.1   -6.4
P    -1.5    6.1    6.5
I    -7.9    4.3    0.0
H    -7.7   -3.2   -3.5
P    -6.2    1.6   -6.4
I     9.1   -0.1    0.2
H     7.7    1.4    4.6
I    -4.3    8.0   -0.1
I    -3.4   -5.5    6.5
N    -1.5    1.5   -8.9
I    -4.3   -4.8   -6.4
I     0.2   -9.1    0.2
I    -7.9   -4.7    0.0
I     5.5    3.5    6.5
N    -5.7    6.0    4.0
H    -1.4   -8.6    3.1
H    -6.8    5.9    2.2
H    -2.8   -8.2   -3.1
I     4.6    8.0   -0.1
I     4.6   -4.8   -6.4
H     2.4   -2.5    8.6
H    -0.7    1.0   -9.2
N    -6.8    5.5   -3.2
H     8.6    2.3   -2.8
C    -5.7    6.6   -3.4
H     3.0   -3.1   -8.3
H     8.7    1.7    3.1
H    -6.3    5.3    4.5
H    -1.8    0.1    9.3
P    -6.0   -7.3    0.0
P     7.2    6.2    0.0
H    -1.4   -8.5   -4.1
H     6.9   -5.7    3.3
H     6.6   -6.6    2.0
H     5.8   -6.9    3.3
H    -5.8    7.4    2.4
C    -6.5    6.7    2.9
C    -1.0    2.1    9.4
H    -9.1    1.7    3.1
H    -5.4    6.7    4.7
I     7.1    6.0    3.2
H     2.2   -1.2   -9.5
H    -5.7    6.7   -4.5
I    -5.8   -7.3    3.2
H     7.2   -6.5   -1.9
H     1.1   -2.4   -9.5
H    -9.2    2.3   -2.8
N     6.7   -6.6    3.0
H    -3.0    1.3    9.3
H    -9.8    1.1   -1.8
N    -2.1    1.0    9.7
H    -1.4    9.4    3.1
H    -0.1    1.7    9.9
P     7.2   -2.9   -6.4
I     2.4    1.5   -9.6
H    -6.1    7.5   -2.9
I     5.5   -5.5    6.5
I    -6.3   -7.2   -3.2
P     2.7   -7.4   -6.4
I     7.4    6.2   -3.2
I    -1.6   -2.8   -9.6
I    -1.6   -2.7    9.7
H     3.3   -4.0    8.8
C     2.7   -3.3    9.3
P     7.4   -2.9    6.5
P     3.0   -7.4    6.5
H    -7.7    5.8   -3.5
H    -0.9   10.1   -1.8
N     2.0   -2.1   -9.9
I     0.8    8.0   -6.4
I     3.2    1.7    9.7
C     3.0   -3.1   -9.4
I    -8.1   -1.0   -6.4
H    -3.1    2.7   -9.5
H    -1.4    9.5   -4.1
C    -2.2    2.2  -10.0
H    -1.4    3.0    9.9
H     6.6   -7.0   -4.2
N   -10.1    1.8   -2.5
H     1.9   -3.7    9.7
H    -5.9   -3.1   -8.3
H     3.0    5.9   -8.3
H     3.3    5.0    8.8
H    -2.9    9.7   -3.1
I    -8.5   -0.3    6.4
H    -1.1   -6.8   -8.2
H     6.1   -8.2   -3.1
C   -10.1    1.4    3.5
H   -10.3    0.4    3.1
H    -7.3    7.2    3.3
H     6.8    0.8   -8.3
I     9.9    4.3    0.0
H    -0.9   -6.8    8.4
I     0.4    8.7    6.4
I    -4.3  -10.0   -0.1
N     7.8   -7.2   -2.5
I    -7.8    4.2    6.3
H     4.0   -2.8   -9.8
P   -10.6   -2.8    0.0
I     9.9   -4.7    0.0
H     2.8   -4.1   -9.8
H    -1.6    2.9  -10.5
H    -2.2    0.9   10.7
I     4.6  -10.0   -0.1
C     6.9   -7.8   -3.6
C    -2.0   10.2   -3.6
C    -1.2   10.4    3.5
P     2.8   10.7    0.0
H    -6.5   -2.5    8.6
H    -2.6    1.4  -10.7
H   -10.3    0.5   -4.1
H     2.4    6.5    8.6
H   -10.6    2.5   -1.9
I    -4.1    8.0    6.5
H    -5.6   -4.0    8.8
H     5.9    1.3    9.3
I    -7.8   -4.8    6.3
H   -10.1    1.4    4.6
H    -0.2   10.7    3.1
N    -1.2   10.8   -2.5
H    10.5   -1.8    3.3
H     4.4   -2.2   10.0
H    10.1   -3.2   -3.5
H    -4.5   -2.2   10.0
H     1.8    5.3    9.7
I   -10.4   -2.8   -3.2
C     2.7    5.7    9.3
H     2.9  -10.5   -2.9
H     1.9   -2.1  -10.9
H     2.8    4.9   -9.8
H    -4.9   -2.8   -9.8
N     3.6   -2.7   10.4
H     8.6   -6.7   -2.8
I     9.3   -0.3    6.4
I     0.4   -9.3    6.4
H     3.1  -10.6    2.4
I     4.8    8.0    6.5
P     7.1    6.1   -6.4
I    -5.7    1.7    9.7
C     7.7   -7.6    3.5
H    -1.2   10.4    4.6
H     1.6  -10.8    3.3
I    -8.8    3.5   -6.4
H     8.1   -7.9   -1.8
P    -6.0   -7.4    6.5
I    -3.6    8.7   -6.5
H     7.8    2.2   -8.2
H     5.8    2.7   -9.5
C     3.0    5.9   -9.4
C    -5.9   -3.1   -9.4
H     3.0   -2.0   10.9
I     2.6   10.7   -3.2
C   -10.9    1.2   -3.6
H    -5.6    5.0    8.8
I    -1.6    6.1   -9.6
I     9.0    3.5   -6.4
I     3.1   10.6    3.2
P     7.4    6.1    6.5
P    -6.2   -7.4   -6.4
I   -10.7   -3.0    3.2
H   -11.2    2.4    2.0
H     1.0    6.6   -9.5
H    -0.3   11.3   -2.8
C    -6.2   -3.3    9.3
I    -1.6    6.3    9.7
N     7.4    1.5   -8.9
H     7.1    0.1    9.3
H    -1.3   -6.0    9.9
H    11.0   -3.1    2.2
N    -1.5   -7.5   -8.9
I     9.7   -1.0   -6.4
H    -6.7   -1.2   -9.5
H    10.9   -3.6   -2.1
I    -6.5    1.5   -9.6
H    -9.2   -6.7   -2.8
H    -5.9    5.9   -8.3
C    -1.0   -6.9    9.4
H     8.7   -7.3    3.1
N   -11.1    2.4    3.0
H     7.9    2.2    8.4
H     7.8   -7.6    4.6
H    -2.3   11.4    2.0
H    -1.7   11.5   -1.9
H     7.5   -8.6    3.1
H    -2.1   -8.1   -8.3
H    -3.1   -6.3   -9.5
P    11.8    1.7    0.0
P    -1.7  -11.8    0.0
I     0.8  -10.0   -6.4
H     6.0    9.7   -3.1
I    -3.6   -9.3   -6.5
H   -10.9    3.3    3.3
N     6.8    1.0    9.7
C     2.5  -11.3    2.9
N    -2.2   11.3    3.0
C    11.4   -2.3    2.9
N    -5.4   -2.7   10.4
H    -3.2   11.1    3.3
N    11.0   -3.5   -3.2
H    -2.3   11.0   -4.2
H    -9.1   -7.3    3.1
I    11.5    1.8   -3.2
H     7.6   -8.5   -4.1
I     5.3    8.7   -6.5
H   -11.2    2.0   -4.2
N     2.0    6.8   -9.9
H    10.1    5.8   -3.5
C     6.7    2.2  -10.0
I    -8.8   -5.5   -6.4
H   -11.8    0.8   -3.1
H     3.9   -3.4   11.1
H    -0.6   -8.0   -9.2
H    -1.6   -6.1  -10.5
H    11.8   -1.5   -2.9
N    -6.9   -2.1   -9.9
H    -6.1   -4.1   -9.8
H    -0.1   -7.3    9.9
P    -6.1   10.7    0.0
H     4.0    6.2   -9.8
I    -1.5  -11.8   -3.2
C    -2.2   -6.8  -10.0
P   -10.6    6.2    0.0
H    -5.8  -10.6    2.4
I     9.0   -5.5   -6.4
C     3.2  -11.4   -3.4
H    10.9    5.3   -2.1
H    12.0   -1.6    2.4
H     7.5    9.4    3.1
H     8.2    1.0   -9.2
I     7.3   -2.7    9.7
I     7.3   -2.8   -9.6
I    -8.7    8.8    0.2
H    -3.0   -7.7    9.3
H    -6.0  -10.5   -2.9
I     2.4   -7.5   -9.6
C     7.9    2.1    9.4
H     2.2  -12.1    2.2
H     6.3    1.4  -10.7
H     2.2    7.8   -9.5
I     3.2   -7.3    9.7
I     5.3   -9.3   -6.5
H    -6.1    4.9   -9.8
I    10.0    4.2    6.3
I    -5.8   10.6    3.2
C    -5.9    5.9   -9.4
C    -6.2    5.7    9.3
I    -1.8  -12.0    3.2
I   -10.4    6.2   -3.2
I    12.0    1.7    3.2
H     3.3  -11.3   -4.5
H   -10.6   -6.5   -1.9
H    -7.9   -2.4   -9.5
H    -5.9   -2.0   10.9
P   -10.4   -2.9    6.5
N   -10.0   -7.2   -2.5
H    -7.1   -3.7    9.7
H    -4.9    6.2   -9.8
