         400
 sphere cut out from bulk 
H     0.4    1.0    1.3
I    -0.1    1.1   -1.9
C    -0.2    1.6    2.0
H    -2.0    0.5    1.7
H     2.0   -0.3   -1.8
N    -1.3    0.7    2.5
H    -0.6    2.5    1.6
H    -1.0   -0.2    2.9
I    -0.6   -3.0   -0.2
H     2.9   -1.0   -0.6
N     2.9   -0.7   -1.6
H     0.4    1.8    2.9
P    -2.3   -1.3   -2.3
I     2.8   -1.0    2.0
H    -1.9    1.2    3.2
H     3.6    0.0   -1.7
I    -4.0   -0.2    0.1
H     2.5   -2.6   -2.3
C     3.2   -1.9   -2.5
I     3.6    2.8   -0.3
P     1.3    3.9   -2.3
P     1.4   -3.9    2.2
H     3.2   -1.5   -3.5
I    -0.8   -2.5    4.3
H    -4.2   -2.8    1.5
H     4.2   -2.3   -2.2
I    -0.4   -2.4   -4.7
H    -3.2    3.4   -2.5
I    -0.2    5.3    0.1
H    -0.8   -5.2   -1.5
H    -3.3   -4.4    1.2
H    -0.2    0.0   -5.6
H    -0.9    1.5   -5.4
P     5.0    1.4    2.2
H     0.7    1.5   -5.6
I    -3.8    3.7    2.5
I    -3.8    0.5   -4.4
H    -3.1   -3.6    3.5
C    -4.1   -3.9    1.7
N    -0.2    1.0   -5.9
I     3.2    2.9    4.3
I     3.5   -5.1    0.1
I     3.0    2.6   -4.8
H     2.6   -1.9    5.3
H    -2.0   -5.3   -2.6
I    -4.2   -3.8   -2.8
N    -1.3   -5.9   -2.1
C    -4.0    3.9   -3.1
I    -4.5   -0.2    4.6
I    -0.6    1.4    6.3
N    -4.0   -4.1    3.2
H     3.7   -0.4    5.4
P    -6.0    1.4    2.2
H     2.3    6.0    1.4
H     1.5   -0.0    6.5
I    -0.7    4.9   -4.5
H    -4.6    3.2   -3.7
H     0.1   -5.7   -3.7
H    -5.4    3.8   -1.5
H    -5.1   -4.4    1.4
C     3.2   -1.2    6.0
H     5.6    3.8   -1.5
H    -1.7   -6.6   -1.5
H    -3.6    4.7   -3.7
I     7.0   -0.2    0.1
H    -4.7   -3.6    3.7
N    -4.9    4.5   -2.1
H    -4.5    5.2   -1.5
I    -0.1   -6.7    2.5
H     3.4    5.3    3.5
C    -0.3   -6.5   -3.1
P    -2.3    6.5    2.2
H    -3.9   -5.1    3.5
P    -2.4   -1.2    6.8
N     2.3   -0.6    6.9
H     4.0    6.0    1.2
I     3.4   -4.6    4.6
I    -0.3    5.8    4.6
C     3.2    6.5    1.7
C    -0.3    1.2   -7.3
H     0.4   -7.0   -2.5
H    -6.8   -2.3   -2.2
H     5.9   -4.4    1.4
H     6.8   -2.8    1.5
H    -7.4    0.0   -1.7
I     3.0   -5.5   -4.5
I     3.7   -1.6   -6.6
H    -3.1   -3.5   -6.2
I     3.2    6.5   -2.8
H    -1.3    0.7   -7.6
H     5.3    5.1   -2.6
H     4.0   -1.7    6.5
N     3.4    6.3    3.2
N     6.1    4.5   -2.1
H     1.8   -1.3    7.6
I    -7.4    2.8   -0.3
H     0.5    0.7   -7.9
H    -0.4    2.3   -7.6
H    -4.2    3.8    5.5
P     1.2    4.0    6.8
I     6.5   -0.2    4.6
P     1.5   -3.9   -6.8
H    -5.7    5.1   -2.6
H     2.8    0.1    7.6
C     6.9   -3.9    1.7
H     6.4    3.2   -3.7
H     6.3   -3.6    3.7
H    -0.9   -7.2   -3.7
H     2.6    6.8    3.7
H    -3.2    3.0    6.8
H    -8.1   -1.0   -0.6
H    -1.2    7.8   -2.3
N    -8.1   -0.7   -1.6
I     6.8   -3.8   -2.8
H     3.2    7.6    1.5
H     2.8    4.9   -6.2
C    -7.8   -1.9   -2.5
I    -3.7   -7.6   -0.3
H     0.5    8.1   -2.2
I     7.2    0.5   -4.4
I    -8.2   -1.0    2.0
I     7.2    3.7    2.5
I    -4.2    7.4   -0.2
P     5.0   -6.5   -2.3
H     6.5    5.2   -1.5
C    -4.2    3.4    6.6
C     7.0    3.9   -3.1
H    -0.6   -6.6    5.5
H     3.1   -7.9    1.6
P     5.2    1.2   -6.8
H    -7.8   -1.5   -3.5
N     7.0   -4.1    3.2
H     4.3    6.8    3.5
H    -5.0    2.7    6.7
C    -3.7   -3.7   -7.1
H     7.8    3.4   -2.5
H     1.9    6.3   -5.9
C    -0.4    8.5   -2.5
H     7.7   -4.4    1.2
H    -0.2   -5.1    7.4
H    -5.4   -4.1   -5.9
H    -4.1   -2.8   -7.5
P    -5.8    1.2   -6.8
I    -3.9   -4.0    7.1
H     5.6   -4.1   -5.9
I    -7.5   -5.1    0.1
I    -0.2   -2.3    8.8
P     8.7   -1.3   -2.3
P    -6.0   -6.5   -2.3
H    -7.3   -0.4    5.4
N     2.5    5.8   -6.6
H    -9.0   -0.3   -1.8
H     9.0    0.5    1.7
H    -8.5   -2.6   -2.3
H    -1.8   -5.4    7.3
I    -4.4    4.1   -7.1
H    -7.0    6.0    1.2
H     7.1   -5.1    3.5
H     6.0    2.7    6.7
N    -4.9   -4.6   -6.6
H     7.9   -3.6    3.5
H    -4.5   -5.5   -6.2
I    -7.8    2.9    4.3
H    -0.7    9.4   -0.6
H     1.8    5.6   -7.4
H    -3.1   -4.3   -7.8
I    -0.7   -6.3   -7.1
N    -0.9   -5.8    7.5
H     6.8    3.8    5.5
H     7.4    4.7   -3.7
H    -0.5    8.9   -3.5
I    -4.1   -7.5    4.3
P    -2.3   -9.0    2.2
C    -0.6   -7.0    6.6
I     3.0    2.3    8.9
P    -2.2    6.5   -6.8
I    -0.8    9.4    2.0
I     0.1   -2.5   -9.3
I    -8.0    2.6   -4.8
C     3.5   -8.8    2.0
H     9.1    1.2    3.2
I    -3.7    0.0   -9.0
H    -7.0   -1.7    6.5
N    -0.7    9.7   -1.6
H     1.8   -9.2    3.2
N    -4.5    4.6    7.5
C    -7.8   -1.2    6.0
H    -3.8    5.3    7.4
H    -7.6    5.3    3.5
H     4.1   -8.6    2.9
I    -7.3   -1.6   -6.6
I    -4.0    0.2    9.1
I    -4.5    7.8    4.3
I     6.8    7.4   -0.2
N     9.7    0.7    2.5
I     3.2    2.1   -9.3
C     6.8    3.4    6.6
I    -7.6   -4.6    4.6
H     0.4   -7.4    6.8
H    -1.0    8.5    5.3
H    -8.4   -1.9    5.3
N     6.1   -4.6   -6.6
I     3.5   -9.3   -1.9
I    -4.3   -7.8   -4.8
I    -4.0    8.0   -4.7
H    -6.7    6.8    3.5
I     3.4    6.4    7.1
I    -0.2    4.9   -8.9
H     4.2    6.9   -6.2
H     1.7   -9.9    1.7
N     2.3   -9.7    2.5
C    -7.8    6.5    1.7
H     0.2    0.9   10.3
H     4.1   -9.4    1.3
H    -1.3   -7.7    6.7
C     3.6    6.7   -7.1
H    -1.7   10.1   -1.8
H    -5.5    5.0    7.3
H    -5.5   -4.8   -7.4
H     5.5   -4.8   -7.4
H    10.0   -0.2    2.9
N    -7.6    6.3    3.2
H     5.5    5.0    7.3
H     6.5   -5.5   -6.2
H    -0.9   -6.1    8.5
P     4.9   -6.4    6.8
I     6.6    4.1   -7.1
H    -4.5    4.3    8.5
I    -0.5    5.1    9.2
I     7.3   -7.6   -0.3
H    -0.0   10.4   -1.7
H     6.9   -2.8   -7.5
I    -7.8    6.5   -2.8
I    -0.4  -10.6    0.1
P    -9.6   -3.9    2.2
H     7.9   -3.5   -6.2
H    -1.5    0.9   10.5
P    -9.7    3.9   -2.3
P     5.0    9.1   -2.3
I    -8.0   -5.5   -4.5
H    -8.7    6.0    1.4
I     3.3   10.2    0.1
H   -10.6    1.0    1.3
H     4.2    6.1   -7.8
H     2.7   -8.9   -5.4
H     7.7    3.0    6.8
H     9.0   -5.3   -2.6
C     7.3   -3.7   -7.1
H    10.4    2.5    1.6
I     7.1   -4.0    7.1
H     0.3    8.6    6.5
H    -0.6    2.5   10.5
H     2.0   -1.5  -10.6
I    -0.2   -9.9   -4.4
I    10.4   -3.0   -0.2
C    -0.6    1.4   10.8
N     6.5    4.6    7.5
I     0.0    8.8   -6.6
C    -0.5    9.2    6.0
H     3.0   -0.1  -10.6
H    -7.8    7.6    1.5
P     8.6   -1.2    6.8
I     3.4   -5.5   -8.9
I     6.9   -7.5    4.3
I     6.5    7.8    4.3
P     8.7    6.5    2.2
I     3.2   -5.3    9.2
I    10.9    1.1   -1.9
H   -10.6    1.8    2.9
P    -6.1   -6.4    6.8
C    10.8    1.6    2.0
H    -3.7  -10.3   -1.7
H     3.2    7.6   -7.5
P    -6.0    9.1   -2.3
N    -8.7   -0.6    6.9
H    -8.2    0.1    7.6
H     2.7  -10.6    2.9
H    -7.9   -7.9    1.6
H    -4.3    4.1   -9.6
H    -0.0   10.0    5.4
I     6.7   -7.8   -4.8
I    10.2   -2.5    4.3
I   -11.1    1.1   -1.9
I     3.0   -8.9    6.3
H    -6.9   -8.6    2.9
H    -8.2    4.9   -6.2
H     4.4   -8.9   -5.6
H    -8.4    6.8    3.7
H     9.3   -6.6   -1.5
C   -11.2    1.6    2.0
H    -9.5   -0.0    6.5
H    -6.8    6.9   -6.2
N     2.5   -0.8  -11.2
H    10.0    1.5   -5.4
H     6.5    4.3    8.5
H    11.4    1.0    1.3
I     7.0    0.2    9.1
H    -0.6   -6.3   -9.6
I     2.8   10.2    4.6
I     7.2    0.0   -9.0
H    10.2   -5.2   -1.5
N     9.7   -5.9   -2.1
N     3.5   -9.3   -5.9
I    -0.8  -10.6    4.6
H     3.3   -8.1   -7.6
H    -4.7   10.2    2.9
H     7.2    5.3    7.4
P    -2.2   -1.4  -11.3
H    -3.4   -4.1   10.3
I     7.0    8.0   -4.7
P    -2.1   -9.2   -6.8
H    -6.9   -9.4    1.3
C    -7.5   -8.8    2.0
H   -10.3    1.5   -5.6
H    -4.4   -2.6   10.6
H     1.8   -0.2  -11.7
H     7.9   -4.3   -7.8
I    10.6   -2.4   -4.7
I    -0.4    1.3  -11.8
H    -3.3   11.4    1.3
H    11.4    1.8    2.9
H     0.1   -5.2  -10.7
H   -11.6    2.5    1.6
I   -11.6   -3.0   -0.2
P     1.4  -11.6   -2.3
P     1.2   -3.7   11.3
H    -9.2   -1.3    7.6
H    -1.9    9.1    7.6
H    -6.8    6.1   -7.8
H    -3.0    2.8  -11.3
I    10.8    5.3    0.1
P     1.4   11.7    2.2
N    -4.4  -11.1   -1.6
I    -7.5   -9.3   -1.9
H    -5.3  -10.7   -1.8
P     1.5    3.8  -11.4
N    -1.4    9.8    6.9
I     3.4   -1.4   11.6
I    -8.0    2.3    8.9
C    -7.4    6.7   -7.1
H    10.8    0.0   -5.6
I    10.4    1.4    6.3
H     5.4   10.9    1.7
C     3.3   -9.2   -7.3
N    -0.6   -6.0  -10.6
I    -7.6    6.4    7.1
I    10.3    4.9   -4.5
H     5.7  -10.7   -1.8
H    -4.4  -11.4   -0.6
I     3.5   10.9   -4.4
N    -8.5    5.8   -6.6
I    -3.8   11.5   -1.9
I    -7.8    2.1   -9.3
N    -4.3    4.4  -10.6
H     1.6    5.8   10.7
H    -1.5   -5.6  -10.8
C    -4.0   -3.5   11.1
H     3.5  -10.3   -5.6
N    -0.4    1.2   12.2
I    -3.7   -4.2  -11.0
P    -9.5   -3.9   -6.8
H    -5.6   10.9    1.7
H   -12.0   -0.2    2.9
H     6.3   10.2    2.9
N    10.8    1.0   -5.9
H     9.7    0.7   -7.6
H    -2.2   10.3    6.5
I    -4.5  -11.4    2.0
P     4.9    1.4   11.3
H    -6.6   -8.9   -5.6
I   -11.2    5.3    0.1
H    -3.6    5.1  -10.7
N    -5.0   11.1    2.5
H     6.7    4.1   -9.6
P     4.9    9.2    6.8
H    -3.8   10.4   -5.6
H   -11.2    0.0   -5.6
H     4.2   -1.9  -11.6
H    -0.4    0.2   12.5
I   -11.4   -2.4   -4.7
P    -9.8    4.0    6.8
H     2.4   -9.7   -7.6
I    -3.8    8.1    8.8
H    -9.1    6.3   -5.9
N   -12.3    0.7    2.5
H    -4.8    2.5  -11.4
H    -3.7  -10.8    5.4
C    -4.0    3.2  -11.5
I    -1.0   -6.1   11.0
N   -11.2    1.0   -5.9
H     0.5    1.7   12.6
H     9.8    7.8   -2.3
C     3.5   -1.4  -12.1
H     3.9    6.3   10.3
C    -3.9   11.9    2.0
I    -4.6    4.3   11.0
I    -3.6    7.9   -9.3
P     8.7   -9.0    2.2
H     7.3  -10.3   -1.7
I    -7.7   10.2    0.1
