         400
 sphere cut out from bulk 
H     0.3    0.2   -0.3
C     0.1    1.2    0.0
H    -0.1    1.3    1.1
N    -1.2    1.6   -0.7
H     0.8    1.9   -0.3
H    -2.0    0.9   -0.4
H    -1.1    1.5   -1.7
H    -1.3   -2.6    0.3
H    -1.5    2.5   -0.4
I     2.7   -1.6   -0.2
H     1.0   -3.3    0.4
I    -3.6   -0.8    0.2
C    -1.0   -3.6   -0.0
I     1.4    0.6    3.6
H    -0.9   -3.7   -1.1
N     0.3   -4.0    0.6
H     0.2   -3.9    1.7
H     1.8    2.6   -3.2
I    -0.9    1.6   -4.1
I     3.5    2.9    0.3
H    -1.8   -4.4    0.3
P     4.3    0.2    2.0
H    -0.7    4.0    2.8
H     0.6   -4.9    0.4
H     0.7    2.8    4.3
I    -2.3   -3.0   -3.6
I    -2.3    4.7    0.3
H     3.9    2.9   -2.1
C     2.5    3.3   -3.6
H    -1.7    3.4    4.2
I     0.0   -3.9    4.1
C    -0.9    4.1    3.9
H     4.1    2.0   -3.4
N     3.8    2.9   -3.1
H     2.3    4.3   -3.2
N     0.4    3.7    4.6
P     5.1   -2.6   -2.1
I    -4.3    2.4    3.6
P    -5.2   -2.6   -2.1
P     1.5   -1.7    5.8
H     1.1    4.4    4.3
H     2.5    3.3   -4.7
P    -2.4   -0.7   -5.8
P    -6.0    0.2    2.0
I     4.9   -0.2   -4.3
H    -2.7   -4.9    3.5
I     4.6   -2.1    4.3
H    -1.2    5.1    4.1
I     6.7   -0.8    0.2
H     0.3    3.8    5.6
H     4.6    3.6   -3.5
I    -4.5   -5.2   -0.2
H    -1.6   -5.1   -4.4
I    -5.4   -0.2   -4.3
H    -0.1   -6.3   -2.9
I     3.5   -4.8   -3.7
I    -0.0    6.1   -3.7
H     0.8   -5.7   -4.3
I     1.3   -7.1   -0.3
H    -6.2    2.0   -3.4
I     6.0    2.4    3.6
I    -6.8    2.9    0.3
H    -4.7   -5.3    2.2
H    -6.4    2.9   -2.1
I    -5.7   -2.1    4.3
P    -5.1    5.1    1.9
P    -1.5    4.3   -6.0
H     3.7    0.7   -6.5
H    -5.0   -4.3    3.5
P     5.2    5.1    1.9
C     0.1   -6.4   -4.0
H    -5.7    3.6   -3.5
C    -3.4   -5.6    3.8
I    -1.0   -0.6    7.5
I     2.7    6.1    3.7
H     5.2   -4.3    3.5
I     0.1   -1.8   -7.5
N    -1.2   -6.1   -4.6
N    -6.5    2.9   -3.1
P    -2.5    7.1   -1.9
N    -4.7   -5.2    3.2
I     5.8   -5.2   -0.2
I    -7.6   -1.6   -0.2
I    -4.1    5.2   -4.2
H    -3.4    1.4    7.0
H     5.6   -5.3    2.2
H    -4.0    2.9    6.3
H     3.1    2.0   -7.2
H    -3.2   -6.6    3.5
H    -4.5   -2.0    6.6
H    -3.6   -5.6    4.9
H    -2.0   -6.8   -4.3
N     5.6   -5.2    3.2
N     3.7    1.2   -7.3
H     8.3    0.9   -0.4
H    -3.3   -1.5    7.6
H     4.8   -5.9    3.5
H    -1.2   -6.1   -5.7
I     1.4    3.8   -7.4
I    -3.2    2.0   -7.6
H     2.2    0.1   -8.2
C    -4.0    2.2    7.2
H     2.3   -3.2   -7.6
H     0.4   -7.4   -4.3
H     0.4    7.9    3.5
I     3.2    0.1    8.1
P     4.2   -7.5   -1.9
H    -5.5   -5.9    3.5
I    -3.5    6.9    4.2
N    -4.2   -1.9    7.6
H     3.5   -5.0   -6.5
I    -0.1    3.8    8.0
I     4.9    7.4   -0.3
P     0.7   -6.6    5.9
H     5.8   -2.0    6.6
H     4.7    1.6   -7.5
I     2.3   -4.3    7.6
H     1.6    7.8   -4.3
C     3.2    0.4   -8.5
I    -6.8   -4.8   -3.7
I     6.2    5.2   -4.2
H     8.8    2.5   -0.4
H    -2.6    3.4    8.1
I    -5.4    7.4   -0.3
H    -5.0    1.9    7.4
H     3.9    7.1   -4.3
H    -3.5   -3.9    7.6
I     7.9   -3.0   -3.6
C    -7.8    3.3   -3.6
H    -6.6    0.7   -6.5
I     3.2   -7.6    4.2
I    -0.8   -8.4    3.7
N     9.1    1.6   -0.7
H     5.2    1.9    7.4
H     6.3    2.9    6.3
I     8.0    4.7    0.3
I    -0.9    9.3   -0.2
H     9.0   -2.6    0.3
H     3.5    8.2   -2.9
I    -4.0   -2.4   -8.1
N     3.0   -3.8   -8.1
H     3.8   -0.5   -8.6
H     2.0   -5.5   -7.4
H     9.2    1.5   -1.7
H    -8.5    2.6   -3.2
H    -1.9    8.6    3.5
N    -3.5    3.1    8.3
H    -4.9   -1.3    8.0
C     3.0   -5.1   -7.5
H    -5.6    1.6   -7.5
H     3.9   -3.3   -8.1
H     8.5   -4.4    0.3
I    -8.9    0.6    3.6
H    -1.1    9.3    2.2
C     6.9   -5.6    3.8
H    -9.5    1.9   -0.3
H    -8.0    4.3   -3.2
H    -7.8    3.3   -4.7
H     7.6   -4.9    3.5
C     0.1    8.9    3.8
P     1.6   -9.4    1.9
C    -4.2   -3.3    8.2
C     3.6    8.1   -4.0
H     5.4   -1.3    8.0
C     6.3    2.2    7.2
P    -6.1   -7.5   -1.9
P     7.9   -0.7   -5.8
H    -9.3   -3.3    0.4
N     6.1   -1.9    7.6
P     0.7    1.1    9.8
I    -3.6   -8.5   -3.7
N    -1.2    9.3    3.2
N     2.3    8.4   -4.6
H     3.2    1.0   -9.4
I    -2.2   -6.3    7.4
N    -6.6    1.2   -7.3
C     9.3   -3.6   -0.0
H     6.9    1.4    7.0
H   -10.0    0.2   -0.3
H     6.7   -5.6    4.9
H    -3.5    2.5    9.2
H    -4.2    3.9    8.4
H     9.4   -3.7   -1.1
H     8.6    3.4    4.2
I    -0.8   -6.2   -8.1
H     2.7   -3.8   -9.1
H     0.0    9.0    4.9
H     0.9    9.6    3.5
C   -10.2    1.2    0.0
H    10.2    1.3    1.1
H     7.1   -6.6    3.5
H     1.8   10.2    0.3
H     5.1   -3.7    8.2
I    -7.6    6.1    3.7
I     9.4    1.6   -4.1
H    -5.2   -3.7    8.2
H    -3.7   -3.2    9.2
C    10.4    1.2    0.0
H     2.4    8.4   -5.7
H    -7.2    2.0   -7.2
H     7.0   -1.5    7.6
H    -6.4    7.1   -4.3
H     4.2    9.6    0.4
I     6.3   -2.4   -8.1
I     6.8    6.9    4.2
P    -1.5   -3.5   -9.8
H   -10.4    1.3    1.1
H     2.0    9.4   -4.4
I     2.7   -9.3   -4.2
H     3.7   -5.7   -8.1
I    -1.7    6.4   -8.2
I     7.1    2.0   -7.6
H    -2.8    2.0  -10.0
H    10.6    0.2   -0.3
P    -8.8   -1.7    5.8
H    -6.8   -5.0   -6.5
P     7.8    7.1   -1.9
C     6.1   -3.3    8.2
H     9.6    4.0    2.8
I     4.5   -9.8    0.3
H    -6.5   -0.5   -8.6
P     4.3    7.9    5.9
H    -1.3  -10.2   -3.2
H     4.4    8.9   -4.3
I    -7.1    0.1    8.1
H    -6.4   -3.3   -8.1
N   -10.0   -4.0    0.6
H     6.7   -3.9    7.6
H    -9.7   -4.9    0.4
H    -9.6    2.8    4.3
I    -3.2    9.7   -3.7
H    -1.5   10.2    3.5
C     9.4    4.1    3.9
H   -10.1   -3.9    1.7
I     4.5    5.7    8.3
H     8.7   -5.1   -4.4
H     1.9   -4.3   10.0
H    -6.8    8.2   -2.9
H    -9.2    4.4    4.3
C    -7.1    0.4   -8.5
H     6.1    3.9    8.4
N     6.8    3.1    8.3
I     1.4    8.3    7.4
C     2.5   10.9   -0.0
I    -7.1   -7.6    4.2
H     9.1    5.1    4.1
H     2.7   10.9   -1.1
C    -6.7    8.1   -4.0
H    -2.4  -10.1    4.3
N     3.8   10.6    0.6
H    11.1    1.9   -0.3
N    10.6   -4.0    0.6
H    10.5   -3.9    1.7
H    -4.8   -9.4    4.1
H     3.8   10.6    1.7
I     6.7   -8.5   -3.7
H    -6.1    9.6    0.4
I    -5.8   -9.8    0.3
P     8.8    4.3   -6.0
I    -8.9   -7.1   -0.3
H    -8.0   -3.2   -7.6
P     1.2    6.1   -9.7
H     1.0  -10.9   -3.5
H    -5.9    8.9   -4.3
N    -7.3   -3.8   -8.1
N    -9.9    3.7    4.6
P     1.6    6.1    9.7
I    -5.8    5.7    8.3
H    -8.1    0.1   -8.2
H     8.3   -6.8   -4.3
N    -2.7    1.9  -11.1
P    -6.0    7.9    5.9
C    -7.3   -5.1   -7.5
H    -2.4    0.9  -11.3
H   -11.4    1.5   -1.7
N   -11.5    1.6   -0.7
I    -0.0  -11.6    0.3
I    -2.4    1.6   11.3
H     5.5   -9.4    4.1
H     7.7    3.4    8.1
H    -4.3  -10.5    2.8
H     6.8    2.5    9.2
H     6.6   -3.2    9.2
I   -10.3   -3.9    4.1
H    11.3   -3.3    0.4
I    10.3   -3.9    4.1
H     0.3  -11.6   -2.1
H    -2.0    2.6  -11.3
H    -7.1    1.0   -9.4
C    -1.1  -11.2   -3.6
H   -11.2   -3.7   -1.1
N     9.0   -6.1   -4.6
H     1.5   -3.3   11.3
I    -8.0   -4.3    7.6
H    -9.5   -5.7   -4.3
C   -11.3   -3.6   -0.0
H   -11.6   -2.6    0.3
I     3.6   10.6    4.1
I     2.7    8.4   -8.1
H    -6.6   -5.7   -8.1
N     1.8   -4.3   11.0
H    -3.3    9.5   -6.5
H    10.9   -4.9    0.4
C    -4.5  -10.5    3.9
I     9.3   -0.6    7.5
N     0.3  -11.6   -3.1
I   -11.2    1.6   -4.1
H   -11.0    4.0    2.8
I     1.5   -3.9  -11.3
H   -11.8    2.5   -0.4
I     0.7   -1.1   12.0
H   -10.0    3.8    5.6
H     2.3   11.9    0.3
H    11.0    2.8    4.3
N    -3.2  -10.8    4.6
I     0.9   -8.9    8.3
H     4.6   11.2    0.4
I    -8.9    3.8   -7.4
N    10.7    3.7    4.6
I     2.2    3.4   11.5
I     1.2   11.6   -3.6
I    -1.7   -1.3  -12.0
H    -1.1  -11.2   -4.7
P    -1.6   12.0   -2.1
I    11.7    0.6    3.6
H   -12.3    0.9   -0.4
H    -3.1    8.8   -8.1
H     9.1   -6.1   -5.7
H    10.2   -6.3   -2.9
H     1.1   -4.9   11.3
N    -6.5   10.6    0.6
H    -8.3   -5.5   -7.4
I     2.9    0.6  -12.1
H     6.0  -10.5    2.8
H    -8.7    7.8   -4.3
H    -7.6   -3.8   -9.1
H    -1.8  -11.9   -3.2
I    10.3    6.1   -3.7
H   -10.4   -6.3   -2.9
N    -8.0    8.4   -4.6
H    -4.8    1.5  -11.5
H     8.4    8.6    3.5
C   -11.2    4.1    3.9
H    10.5    3.8    5.6
I   -10.3    6.1   -3.7
H    -6.5   10.6    1.7
H    -3.3  -10.7    5.6
H     3.9   -3.8   11.3
I     7.0    9.7   -3.7
C    -3.7    9.4   -7.5
C     5.8  -10.5    3.9
H    -4.7    9.0   -7.4
I     5.0   -8.1   -8.2
H    -5.7   11.2    0.4
C    -4.0    2.2  -11.8
I     8.1   -6.3    7.4
H     7.5    2.0  -10.0
I    -5.3   -8.1   -8.2
H    -4.3    3.3  -11.5
I    -0.4    4.3  -12.0
C   -10.2   -6.4   -4.0
H    12.1    2.6   -3.2
I    -7.6   -9.3   -4.2
C    10.3   -6.4   -4.0
I   -10.2   -1.8   -7.5
H     5.5    1.5  -11.5
H   -12.1   -4.4    0.3
H    -2.9  -11.8    4.3
H    -7.9    8.4   -5.7
I     2.4  -12.1    3.6
I    -3.7   -3.0   12.0
C     3.1   -4.6   11.7
H    -2.7  -12.6   -0.3
P    -5.1  -10.3   -6.0
H     5.6    9.0   -7.4
P    -8.7   -9.4    1.9
I    10.4   -1.8   -7.5
H     5.1  -11.2    4.2
P     5.2  -10.3   -6.0
H    -4.7    5.2   10.9
H    11.4    4.4    4.3
P    -2.0   -8.4    9.7
H    -5.2  -11.2    4.2
H    -5.1  -12.0   -0.4
H     0.0   10.6    7.6
H     0.5  -12.6   -3.4
I    12.9   -1.6   -0.2
H     5.2  -12.0   -0.4
P    -9.6   -6.6    5.9
I     3.7    5.1  -11.5
P    -2.4   -8.5   -9.7
H   -12.0    3.4    4.2
H     3.4   -5.6   11.4
H    -9.9   -7.4   -4.3
H    -3.1    3.8   12.2
H    -9.9    7.9    3.5
H    11.1   -5.7   -4.3
I    -2.1  -10.7   -7.4
I     9.3    9.3   -0.2
I    -6.7   10.6    4.1
