         400
 sphere cut out from bulk 
P     0.5    1.2    0.0
I    -1.5   -1.3   -0.4
H    -0.1   -2.5    1.6
I     3.0   -0.8    0.5
I    -0.2    1.0    3.2
I     1.1    1.3   -3.1
H    -2.8    0.0   -2.3
I    -2.0    3.3   -0.4
H     1.2   -2.9   -2.3
N     0.1   -3.3    2.3
H    -0.5   -3.6   -2.1
H    -2.8    0.5    3.2
H     1.8   -2.3    3.1
H     0.2   -1.9    3.9
H     0.6   -4.0    1.9
C     0.8   -2.7    3.5
I     2.4    3.8    0.5
H    -0.8   -3.6    2.6
C     0.5   -3.8   -2.6
N    -3.4    0.2   -3.1
H    -2.8    0.0   -3.9
H    -4.2    0.2    2.3
H     4.2    1.6   -2.2
N    -3.8    0.6    3.2
H    -3.2    2.3   -3.1
H     1.0    4.4   -2.2
H    -3.8    2.5    2.3
H     4.6    0.2    2.3
H    -4.1   -0.6   -3.1
H     0.9   -4.7   -2.2
P    -4.0   -3.4    0.0
H     3.6    2.1    3.2
C    -4.0    1.5   -3.1
H    -0.0   -3.0   -4.5
H    -4.7    1.6   -2.2
H     0.7    5.1    1.9
H     1.0   -3.5    4.2
N     0.3   -3.9   -4.0
C    -4.2    2.1    3.2
H     4.7   -0.6   -3.1
I    -3.3   -3.4    3.2
H    -4.2    0.1    4.0
I     2.3   -5.3    0.5
P     4.8   -3.4    0.0
C     4.8    1.5   -3.1
I    -5.9   -0.8    0.5
H    -0.4    5.6   -2.1
C     0.6    5.4   -2.6
N     5.0    0.6    3.2
H     4.2    1.6   -4.0
C     4.7    2.1    3.2
I    -1.5   -1.3   -5.8
H    -3.7    2.5    4.1
H     4.6    0.1    4.0
H     5.1    2.5    2.3
H    -0.8    5.5    2.6
I     4.3   -3.2   -3.1
I    -2.0   -5.8   -0.4
H     1.2   -4.1   -4.5
H    -0.3    4.5   -4.3
N     5.4    0.2   -3.1
N     0.2    5.8    2.3
H    -0.3   -4.6   -4.3
H    -4.6    1.6   -4.0
I    -4.6   -3.2   -3.1
P     0.5    1.2   -6.3
H     6.0    0.0   -2.3
P     0.6    1.2    6.3
H    -5.3    2.1    3.2
N     0.4    5.3   -4.0
I     3.1   -0.7    5.9
H     1.3    6.2   -2.3
H    -0.0    6.6    1.6
H     5.6    2.3   -3.1
H     6.1    0.5    3.2
H     1.3    5.0   -4.5
I    -1.9    3.2   -5.8
P    -4.0    5.7    0.0
H     5.1    2.5    4.1
H     1.0    5.6    4.2
I    -1.4   -1.3    6.9
H     6.1    0.0   -3.9
I     5.5   -3.4    3.2
I    -3.3    5.7    3.2
C     0.9    6.4    3.5
I     3.0   -0.8   -6.8
I     7.4   -1.3   -0.4
I    -6.4    3.8    0.5
I     2.5    3.8    6.0
P     4.9    5.7    0.0
H     0.0    6.1   -4.5
I     6.9    3.3   -0.4
H     1.9    6.8    3.1
I    -1.9    3.3    6.8
P     0.5   -7.9    0.0
I    -1.4    7.8   -0.4
I     4.3    5.9   -3.1
H    -3.8   -6.6    2.3
I     2.4    3.8   -6.7
H    -7.1   -2.3    3.1
I    -4.5    5.9   -3.1
P    -4.0   -3.4   -6.3
P    -3.9   -3.4    6.3
H    -3.3   -6.8   -3.1
H     0.3    7.2    3.9
I    -5.8   -0.7    5.9
I     2.4   -5.3    6.0
P    -8.3    1.2    0.0
I    -6.5   -5.3    0.5
H     3.5   -7.0    3.2
I     1.0   -7.8   -3.1
I    -7.8    1.3   -3.1
I    -2.0   -5.9   -5.8
H    -7.7   -2.9   -2.3
H     5.0   -6.6    2.3
I     5.6    5.7    3.2
P     4.9   -3.4   -6.3
H    -3.8   -6.6    4.1
H     0.0   -2.9    8.2
I    -0.3   -8.1    3.2
P     4.9   -3.4    6.3
H     4.1   -7.5   -2.2
C    -4.2   -7.1    3.2
I     2.4   -5.3   -6.7
I     3.0    8.3    0.5
H     0.2   -2.0   -8.7
I    -5.8   -0.8   -6.8
I     6.8   -5.8   -0.4
C     4.6   -7.1    3.2
H    -2.8    0.1    8.7
H    -4.7   -7.5   -2.2
C    -4.1   -7.6   -3.1
C    -8.0   -2.7    3.5
H     1.3   -4.0    8.1
H     1.0   -3.6   -8.4
H     8.0   -3.6    2.6
I    -2.0   -5.8    6.8
H     8.8   -2.5    1.6
H     5.0   -6.6    4.1
I     8.7    1.0    3.2
H    -7.9    4.4   -2.2
H     5.5   -6.8   -3.1
H    -8.2   -4.0    1.9
H     8.4   -3.6   -2.1
P    -3.9    5.7   -6.3
H    -5.3   -7.0    3.2
N     0.4   -3.8    8.6
P    -3.9    5.8    6.3
H     4.1   -7.5   -4.0
H    -8.9   -2.5    1.6
P     9.4    1.2    0.0
C     4.8   -7.6   -3.1
I     7.4   -1.3   -5.8
I    -0.2    1.0   -9.4
H    -8.0   -4.7   -2.2
H    -0.3   -4.5    8.3
C    -8.4   -3.8   -2.6
H    -0.2    4.6    8.3
I    -6.4    3.8    6.0
C     0.8   -2.8   -9.1
I     6.9    3.2   -5.8
H    -7.9   -3.5    4.2
H    -2.8   -8.6    3.2
H    -4.2    0.1   -8.6
H    -3.8    2.5   -8.5
N    -8.8   -3.3    2.3
I    -9.0    1.0    3.2
H    -8.6   -1.9    3.9
H     1.3    5.1    8.1
I     1.1    1.4    9.5
H    -4.7   -7.5   -4.0
H    -7.6   -4.1   -4.5
H     4.2    1.7    8.6
H     4.6    0.1   -8.6
I    -1.4    7.8   -5.8
H    -8.1    5.1    1.9
H    -2.9   -9.1   -2.3
N     8.9   -3.3    2.3
H    -2.8    9.2   -2.3
P     5.0    5.7   -6.3
N    -3.9   -8.5    3.2
H    -2.8    0.5   -9.5
P     5.0    5.8    6.3
H    -4.6    1.7    8.6
H     1.8   -2.4   -9.5
H    -4.1    8.5   -3.1
I    -6.4    3.8   -6.7
N    -3.5   -8.9   -3.1
H    -7.6    6.2   -2.3
H     9.1   -1.9    3.9
H     8.1    5.5    2.6
N    -3.4    0.2    9.5
N     0.4    5.3    8.6
P     0.5   -7.9    6.3
H    -7.6    5.0   -4.5
H     1.0    5.6   -8.4
P     0.5   -7.9   -6.3
I    -5.8    8.3    0.5
N    -8.5   -3.9   -4.0
I     7.4   -1.3    6.9
C    -8.3    5.4   -2.6
H    -4.3   -9.0    2.3
H    -9.3   -3.6   -2.1
H     5.1    2.5   -8.5
N    -3.8    0.6   -9.5
H    -7.0    6.8    3.1
I    -6.4   -5.3    6.0
H     0.1    6.2    8.2
H     3.6    2.1   -9.4
I     6.9    3.3    6.8
H     4.8    8.5   -3.1
H    -2.9   -9.1   -3.9
H     4.6   -9.0    2.3
H     8.8   -3.0   -4.5
H     8.4    5.6   -2.1
N     5.0   -8.5    3.2
H    -2.7    9.2   -3.9
H    -3.2    2.3    9.6
I     2.9   -9.9    0.5
N    -3.3    9.3   -3.1
P     0.6   10.3    0.0
H    -8.9   -3.0   -4.5
H    -4.1   -0.5    9.5
C     9.4   -3.8   -2.6
I   -10.3   -1.3   -0.4
H    -4.2    9.3    2.3
C    -4.0    1.6    9.5
I     9.9    1.3   -3.1
H     9.5   -4.0    1.9
I    -1.4    7.8    6.9
H    -2.7    9.6    3.2
P    -8.3    1.2   -6.3
P    -8.3    1.2    6.3
H    -7.8    5.6    4.2
C    -4.2    2.0   -9.4
I    -1.5  -10.4   -0.4
H     8.5   -4.6   -4.3
I    -3.4   -3.5   -9.4
H     8.6    4.5   -4.3
H     6.1    0.1    8.7
C     9.7   -2.7    3.5
H     4.8   -0.5    9.5
H     4.7    9.3    2.3
I    -0.1   10.2    3.2
H    -9.7   -3.6    2.6
H    -0.9   -3.7  -10.0
I     3.1    8.4    5.9
C     4.6    2.0   -9.4
I    -6.5   -5.3   -6.7
N     5.0    0.6   -9.5
H    10.0   -2.9   -2.3
H    -4.3   -9.0    4.0
I     6.8   -5.9   -5.8
N    -8.7    5.8    2.3
C     0.5   -3.7   10.1
H    -2.8    0.1   10.4
N    -8.4    5.3   -4.0
N     9.2   -3.9   -4.0
H     1.2   -2.9   10.3
I     7.4    7.8   -0.4
C    -8.0    6.4    3.5
C     4.8    1.6    9.5
N     0.1   -3.3  -10.3
H     4.6   -9.0    4.0
N     5.4   -8.9   -3.1
I     4.3   -3.2    9.5
N    -3.8    9.7    3.2
H    -4.2    9.3    4.0
I     1.1   10.4   -3.1
H     6.0   -8.6    3.2
H     9.6    5.1    1.9
N     9.0    5.8    2.3
H     9.8    4.4   -2.2
N     5.5    0.2    9.5
H    -5.3    2.1   -9.4
H    -4.2   -9.7   -3.1
I    -4.6   -3.2    9.5
H    -9.3    5.6   -2.1
H     9.8   -4.7   -2.2
H    -9.1    4.5   -4.3
H    -0.5   -3.5   10.5
H     6.0   -9.1   -2.3
H     8.8    6.6    1.6
H     4.7    9.3    4.0
C     9.4    5.4   -2.6
H    -9.2   -4.6   -4.3
H    -4.3    0.1  -10.3
I     3.1    8.3   -6.8
C     0.9    6.4   -9.1
H    -8.9    6.6    1.6
H     4.7   -9.7   -3.1
H     6.1    9.2   -2.3
H     6.0    0.5   -9.5
N     5.5    9.3   -3.1
H     9.8   -3.5    4.2
H    -3.8    2.5  -10.3
H     4.6    0.1  -10.3
H     0.3    7.2   -8.7
I   -10.8    3.3   -0.4
I     6.9   -5.8    6.8
H    -0.1   -2.6  -11.0
H    10.6   -2.3    3.1
H     5.6    2.3    9.6
P     9.4    1.2   -6.3
H     4.2    1.7   10.4
N     9.3    5.3   -4.0
H    -9.6    5.5    2.6
H     1.0    4.5   10.4
H    -0.8    5.4  -10.0
P     9.4    1.2    6.3
N     5.1    9.7    3.2
I     5.5   -3.5   -9.4
C     0.6    5.4   10.1
H     0.9   -4.6   10.4
H    -3.8   -6.7   -8.5
I    -3.3    5.7   -9.4
I    -7.9   -7.8   -3.1
H     0.6   -4.1  -10.8
P    -8.4   -7.9    0.0
H    -4.6    1.7   10.4
H     6.0   -9.1   -3.9
I    -5.9   -9.9    0.5
H    -8.8    6.1   -4.5
H     8.9    6.1   -4.5
H     0.2  -11.0    3.9
H     6.1    9.2   -3.9
I    -5.7    8.4    5.9
H     5.1    2.5  -10.3
H     4.3   10.7   -2.2
H    -0.2  -11.7    1.6
H    10.1   -4.1   -4.5
H     1.8    6.7   -9.5
C    -4.0   10.7   -3.1
N     0.1    5.8  -10.3
H    -7.6   -4.0    8.1
H     6.1    9.6    3.2
H    -8.6    7.2    3.9
I     3.0   -9.9    5.9
I    11.8   -0.8    0.5
H   -11.7    0.0   -2.3
I   -10.3   -1.3   -5.8
I    11.3    3.8    0.5
H    -4.6   10.7   -2.2
H     0.7    5.0  -10.8
H     5.0   -6.7   -8.5
H    -0.4    5.6   10.5
H     1.7  -11.4    3.1
H     6.1    0.1   10.4
I     4.3    6.0    9.5
I    -1.5  -10.5   -5.8
H    -7.9   -3.6   -8.4
H   -11.6    0.5    3.2
H    10.1    6.2   -2.3
H    -7.1   -2.4   -9.5
I    -4.5    6.0    9.5
P     0.6   10.3   -6.3
H     1.3    6.2   10.3
C     4.9   10.7   -3.1
H     4.2   -7.4    8.6
H     9.9    5.6    4.2
P     0.6   10.4    6.3
H    -3.3   -6.8    9.6
I    -5.8    8.3   -6.8
C     9.7    6.4    3.5
H    -7.5    5.1    8.1
H    10.1    5.0   -4.5
P     9.3   -7.9    0.0
I     8.6   -8.1    3.2
I     7.5    7.8   -5.8
H    -3.2   11.4   -3.1
H     3.5   -7.0   -9.4
H     4.3   10.8   -4.0
H     3.6   11.3    3.2
H     9.1    7.2    3.9
H   -11.7    0.0   -3.9
H    -4.7   -7.4    8.6
I     1.0   -7.7    9.5
I     5.6    5.7   -9.4
H     1.1  -12.1   -2.3
C    -4.1   11.2    3.2
C     0.8  -11.8    3.5
I   -10.9   -5.8   -0.4
I    -7.8    1.4    9.5
H    -4.6   10.8   -4.0
I     3.0   -9.9   -6.8
H    -8.8   -2.9    8.2
H     8.9   -2.9    8.2
I    11.2   -5.3    0.5
I    -1.5   -1.3   12.3
I   -10.3   -1.3    6.9
H    -8.6   -2.0   -8.7
I    -0.3   -8.1   -9.4
H    -3.7   11.7    2.3
I     2.9   -0.9  -12.1
C    -8.1   -2.8   -9.1
I    -1.9   12.4   -0.4
C    -4.3   -7.1   -9.4
I    -1.5  -10.4    6.9
C     4.7   11.2    3.2
I    -9.1   -8.1    3.2
