         400
 sphere cut out from bulk 
H     0.5    0.2   -0.4
C     0.2    1.2   -0.0
H     0.2    1.3    1.1
N    -1.1    1.6   -0.6
H    -1.8    0.9   -0.3
H     1.0    2.0   -0.4
H    -1.1    1.6   -1.6
H    -0.9   -2.5    0.7
H    -1.4    2.5   -0.3
I     2.8   -1.5   -0.1
H     1.0   -3.1   -0.6
I    -3.4   -0.8    0.5
C    -0.6   -3.5    0.6
N     0.2   -3.7   -0.6
H    -0.4   -3.5   -1.5
I     1.4    0.8    3.7
H     0.1   -3.7    1.5
I    -0.6    1.5   -4.0
H    -1.4   -4.2    0.6
H     0.4    3.0    3.4
H     2.1    2.5   -3.4
I     3.7    3.0    0.4
H     0.6   -4.7   -0.6
P     4.3    0.3    2.2
I    -2.0   -3.0   -3.3
H    -0.5    4.2    2.6
I    -2.0    4.7    0.6
N     0.0    4.0    3.5
H     4.0    2.9   -2.0
C     2.8    3.2   -3.8
I    -0.4   -3.7    4.3
H     4.4    1.9   -3.3
N     4.1    2.9   -3.1
P    -4.9   -2.6   -1.8
H     0.9    4.7    3.5
H     2.5    4.2   -3.5
H    -1.6    3.5    4.6
P    -2.3   -0.7   -5.7
P     5.3   -2.6   -1.8
H    -2.7   -4.4    3.6
P     1.5   -1.5    5.9
C    -0.8    4.2    4.7
I    -4.3    2.5    3.9
P    -5.9    0.3    2.2
H    -3.7   -4.7    2.3
H     3.0    3.1   -4.8
I    -5.1   -0.3   -4.0
I     5.2   -0.3   -4.0
I     4.5   -2.0    4.5
H    -4.3   -3.7    3.6
I    -4.3   -5.2   -0.0
N    -3.7   -4.5    3.3
I     3.5   -4.7   -3.3
H    -0.2    3.9    5.6
H     4.8    3.5   -3.3
H    -1.4   -5.2   -4.2
I     6.9   -0.8    0.5
I     0.3    6.0   -3.5
H    -5.8    1.9   -3.3
I     1.4   -7.0   -0.2
H    -1.1    5.2    4.8
H     0.0   -6.6   -2.9
I    -6.5    3.0    0.4
H    -6.3    2.9   -2.0
H    -5.4    3.5   -3.3
P    -1.3    4.3   -5.8
H     0.9   -5.9   -4.3
N    -6.2    2.9   -3.1
I    -3.7    5.2   -3.9
I     5.9    2.5    3.9
P    -5.0    5.2    2.1
H     3.7    0.5   -6.6
I    -5.7   -2.0    4.5
P    -2.1    7.0   -1.7
I    -7.4   -1.5   -0.1
I     0.2   -1.7   -7.4
C     0.1   -6.6   -4.0
P     5.3    5.2    2.1
N    -1.2   -6.2   -4.5
I     2.7    6.2    3.8
I    -1.0   -0.5    7.7
H     6.0   -3.7    3.6
I     6.0   -5.2   -0.0
H     2.6   -3.4   -6.9
I    -3.0    2.0   -7.3
C    -4.2   -5.7    4.1
H    -2.9   -2.0    7.4
H    -4.4   -2.4    6.6
H    -1.9   -6.8   -4.3
H     1.8    0.0   -8.1
H    -4.7    2.6    6.3
H     6.5   -4.7    2.3
I     1.5    3.8   -7.3
H    -1.1   -6.2   -5.6
H    -3.6   -6.6    3.8
H     3.5   -4.7   -6.1
H     8.4    0.9   -0.3
H    -3.2    1.4    7.7
H     2.2    1.7   -8.1
C     3.8    0.4   -7.6
H     5.0   -5.9    3.8
H    -4.2   -5.5    5.1
N     6.6   -4.5    3.3
P     4.3   -7.4   -1.7
H    -5.2   -5.9    3.8
N    -3.8   -2.6    7.4
C     2.9   -4.4   -7.0
H     0.2    7.8    3.8
H     5.5    2.6    6.3
N     2.5    0.7   -8.3
I     3.0    0.3    8.2
H    -2.8    3.1    7.7
H     0.3   -7.6   -4.3
P     0.4   -6.4    6.0
H     2.0   -5.0   -7.0
I    -6.7   -4.7   -3.3
H    -3.4   -3.6    7.4
C    -7.4    3.2   -3.8
I    -3.5    6.9    4.4
H     1.9    7.6   -4.3
H     4.2   -0.6   -7.9
I     2.1   -4.2    7.7
I    -5.1    7.5   -0.2
C    -3.6    2.4    8.0
I     5.2    7.5   -0.2
H     4.2    6.8   -4.3
H     4.7    2.0    7.6
I    -1.2   -8.2    3.8
I    -3.9   -2.5   -7.9
H     5.9   -2.4    6.6
N    -4.9    2.7    7.3
I     2.9   -7.5    4.4
I     6.5    5.2   -3.9
I    -0.1    4.0    8.3
H    -8.2    2.5   -3.4
H     3.9    7.8   -2.9
H     8.9    2.5   -0.3
I    -0.4    9.2   -0.0
H     4.6    1.2   -8.0
H    -7.3    3.1   -4.8
C     6.0   -5.7    4.1
N     9.2    1.6   -0.6
H    -6.6    0.5   -6.6
I     8.3   -3.0   -3.3
H     7.6   -4.4    3.6
H    -1.4    8.6    3.8
H    -7.7    4.2   -3.5
N     5.4    2.7    7.3
H     9.2    1.6   -1.6
H    -9.3    2.0   -0.4
P     1.4   -9.2    2.1
I     8.3    4.7    0.6
I    -8.8    0.8    3.7
H    -5.6    2.0    7.6
C    -0.4    8.7    4.1
C     4.0    7.8   -4.0
P    -6.0   -7.4   -1.7
H     6.1   -5.5    5.1
H     9.4   -2.5    0.7
H    -9.2   -3.1   -0.6
H    -9.8    0.2   -0.4
H     5.1    3.6    7.5
H     2.7    0.6   -9.4
I    -3.6   -8.4   -3.5
H     8.8   -4.2    0.6
P     8.0   -0.7   -5.7
N     2.7    8.3   -4.5
H    -5.2    3.6    7.5
H    -5.7    1.2   -8.0
I    -2.5   -5.9    7.6
H     0.1    9.7    2.3
C    -6.4    0.4   -7.6
H    -6.1   -0.6   -7.9
P     0.6    1.3   10.0
C    -4.5   -2.4    8.7
H    -4.8   -1.4    8.8
C   -10.0    1.2   -0.0
I    -0.8   -6.1   -8.0
N     3.6   -4.6   -8.2
H    -3.7    2.5    9.1
H     6.7   -6.6    3.8
H    -6.1    6.8   -4.3
H     4.5   -4.0   -8.2
N     6.5   -2.6    7.4
H   -10.1    1.3    1.1
H    -6.7   -4.7   -6.1
H    -0.3    8.9    5.1
C     9.7   -3.5    0.6
H     2.7    8.3   -5.6
H     4.8   -3.1    8.7
H     8.6    3.5    4.6
H     5.4   -1.4    8.8
I     2.7   -9.3   -3.9
P    -1.4   -3.5   -9.7
N     0.2    9.9    3.3
H     2.4    9.2   -4.2
I     6.4   -2.5   -7.9
I    -1.5    6.6   -8.0
I    -7.6    6.2    3.8
H     3.0   -4.4   -9.1
H    -6.4    7.8   -2.9
H     7.0    1.4    7.7
I     7.3    2.0   -7.3
I     9.6    1.5   -4.0
H     2.4   10.3    0.6
H    10.4    1.3    1.1
C    10.5    1.2   -0.0
H     9.9   -3.5   -1.5
I     6.7    6.9    4.4
H    -3.9   -2.7    9.5
H     7.3   -2.0    7.4
H    -5.4   -3.1    8.7
I    -2.9    9.7   -3.3
H     4.7    8.5   -4.3
C     5.7   -2.4    8.7
H     6.8   -3.6    7.4
P    -8.8   -1.5    5.9
C     6.7    2.4    8.0
I     4.4   -9.7    0.6
H    -3.0    1.9  -10.1
H     4.4    9.7   -0.6
N   -10.1   -3.7   -0.6
H     4.0   -5.6   -8.3
H    10.8    0.2   -0.4
H     1.2   10.1    3.6
H    -9.7   -4.7   -0.6
H    -5.8   -4.0   -8.2
C    -6.3    7.8   -4.0
H    -3.0   -9.8    3.5
H    -7.7   -3.4   -6.9
H    -9.8    3.0    3.4
P     8.1    7.0   -1.7
H    -1.3  -10.3   -3.5
H   -10.1   -3.7    1.5
I    -7.2    0.3    8.2
H     9.7    4.2    2.6
P     4.3    8.0    6.0
H     1.7   -4.2   10.0
H    -5.5    8.5   -4.3
I     4.4    5.8    8.3
C    -7.4   -4.4   -7.0
H    -9.4    4.7    3.5
H     8.8   -5.2   -4.2
N    10.5   -3.7   -0.6
H     7.4    3.1    7.7
H    10.4   -3.7    1.5
H   -10.6   -3.5   -1.5
I     6.7   -8.4   -3.5
H    -0.4   10.7    3.6
I    -8.9   -7.0   -0.2
I    -5.8   -9.7    0.6
C     9.5    4.2    4.7
N    -7.7    0.7   -8.3
H    -5.9    9.7   -0.6
C   -10.8   -3.5    0.6
H    11.2    2.0   -0.4
I    -7.4   -7.5    4.4
I     9.9   -3.7    4.3
H    -4.4  -10.2    2.6
C     3.3   10.9    0.6
H   -11.1   -2.5    0.7
H     6.5    2.5    9.1
P     1.4    6.1   -9.6
H     1.0  -10.9   -3.3
P     8.9    4.3   -5.8
N   -11.3    1.6   -0.6
I    -0.1  -11.5    0.4
N     4.0   10.7   -0.6
H     4.0   10.7    1.5
N   -10.2    4.0    3.5
N    -6.6   -4.6   -8.2
H    -5.0   -9.2    4.8
I     1.3    8.6    7.6
H   -11.3    1.6   -1.6
H    -8.1    1.7   -8.1
H     9.1    5.2    4.8
H     8.3   -6.8   -4.3
H     3.5   10.9   -1.5
N    10.3    4.0    3.5
H    10.7    3.0    3.4
N    -3.8  -10.4    3.5
H     5.3   -9.2    4.8
H    -8.4    0.0   -8.1
I   -10.9    1.5   -4.0
H     0.1  -11.5   -2.0
P    -6.0    8.0    6.0
H    11.3   -3.1   -0.6
C    -3.6    2.2  -10.9
P     1.5    6.2    9.8
I    -5.9    5.8    8.3
H     6.4   -2.7    9.5
H    -6.3   -5.6   -8.3
H    10.8   -4.7   -0.6
H   -10.8    4.2    2.6
N     9.1   -6.2   -4.5
H    -9.4   -5.9   -4.3
H    -2.9    9.8   -6.1
I     3.1    8.3   -8.0
H   -11.6    2.5   -0.3
C    -1.0  -11.3   -3.8
H     1.4   -3.2   11.4
H    -8.3   -5.0   -7.0
I    -2.2    1.7   11.6
I     1.7   -3.9  -11.2
I    -8.2   -4.2    7.7
H    -4.5    1.5  -11.0
N     1.7   -4.2   11.1
N     0.2  -11.6   -3.1
I     0.5   -8.6    8.3
H    -4.0    3.2  -10.9
I    -8.7    3.8   -7.3
I   -10.6   -3.7    4.3
P    -1.1   11.9   -1.8
I     9.3   -0.5    7.7
I     1.9   11.4   -3.3
H    -7.6    0.6   -9.4
H     5.9  -10.2    2.6
H    -8.4    7.6   -4.3
H   -12.1    0.9   -0.3
I     3.5   10.8    4.3
I    -1.4   -1.2  -12.0
N    -7.6    8.3   -4.5
I   -10.0    6.0   -3.5
H    10.1    3.9    5.6
I     3.1    0.5  -11.8
C    -4.6  -10.3    4.7
I     4.9   -7.9   -8.0
I    11.7    0.8    3.7
H     9.1   -6.2   -5.6
H     3.0   12.0    0.7
I     7.8   -5.9    7.6
H    -2.4    8.9   -8.3
I     2.2    3.5   11.7
I     0.9   -1.0   12.3
H     4.9   11.4   -0.6
H    -7.2   -4.4   -9.1
H    -0.9  -11.4   -4.8
H     0.9   -4.8   11.4
H    -3.4  -11.4    3.4
N    -6.2   10.7   -0.6
H   -11.7   -4.2    0.6
H   -10.4    3.9    5.6
I    -5.4   -7.9   -8.0
H    -2.4    1.1  -12.2
H    -6.3   10.7    1.5
H   -10.2   -6.6   -2.9
H     5.8    1.5  -11.0
H    -4.4    9.4   -7.0
H    -7.5    8.3   -5.6
H    11.1    4.7    3.5
H    10.3   -6.6   -2.9
H     3.7   -3.9   11.3
H    -4.0  -10.5    5.6
H     7.2    1.9  -10.1
H    -5.4   11.4   -0.6
H    -2.0    2.7  -12.1
H    -1.8  -12.0   -3.4
I    -0.2    4.3  -11.9
I    -7.6   -9.3   -3.9
I   -10.1   -1.7   -7.4
I    10.5    6.0   -3.5
C     5.6  -10.3    4.7
I     7.4    9.7   -3.3
N    -2.8    2.0  -12.2
H     7.3   -9.8    3.5
C   -11.0    4.2    4.7
I     2.1  -11.9    3.9
H    -4.4    5.1   10.8
C    -3.5   10.0   -7.0
C   -10.1   -6.6   -4.0
N     6.4  -10.4    3.5
P     5.1  -10.2   -5.8
H    -2.9  -12.5   -0.4
P    -5.2  -10.2   -5.8
H     4.8  -11.0    4.6
I     9.1   -8.2    3.8
H    -7.8    9.2   -4.2
H     8.9    8.6    3.8
C     3.0   -4.6   11.7
I     3.9    5.0  -11.3
H    -7.8   10.3    0.6
H     5.0  -11.9   -0.3
C    10.4   -6.6   -4.0
P    -8.8   -9.2    2.1
I    10.5   -1.7   -7.4
H    -6.8   10.9   -1.5
P    -2.4   -8.4   -9.6
H     6.3    3.2  -10.9
C     6.6    2.2  -10.9
C    -7.0   10.9    0.6
H    -3.2    7.0  -10.5
H     0.6  -12.6   -3.3
H    -5.2  -11.9   -0.3
P    -2.3   -8.2    9.8
H    12.3    2.5   -3.4
H     3.2   -5.6   11.3
I   -12.2   -3.0   -3.3
I    -3.2   -5.7  -11.3
H     5.8    9.4   -7.0
I    -2.3  -10.6   -7.3
