         400
 sphere cut out from bulk 
H    -0.6   -0.4   -2.1
I     0.7    2.1   -0.7
C    -0.8   -1.0   -3.0
H    -0.5   -2.0   -2.8
P     0.5    2.9    2.4
H    -1.9   -1.0   -3.1
H     0.1   -1.4    3.7
I    -1.8    1.2    3.6
I    -4.2   -0.1   -0.6
N    -0.2   -0.4   -4.2
H     0.2   -3.0    3.0
H     0.8   -0.4   -4.1
H    -0.5    0.6   -4.3
C     0.5   -2.4    3.8
I     3.1    0.9    3.5
H     1.6   -2.4    4.0
P    -0.9    4.6   -1.5
P     4.0   -2.6   -1.6
P    -4.3   -0.8    2.5
H    -0.5   -1.0   -5.1
I     3.8   -3.3    1.5
H     2.9    3.1   -3.2
H     4.3    2.4   -2.2
I    -1.5    2.9   -4.3
I     1.4   -4.6   -2.7
I     3.4   -0.9   -4.4
I     5.6   -0.1   -0.6
I    -1.1    5.4    1.6
I    -1.1   -5.5    1.6
N    -0.2   -3.0    5.1
C     4.0    3.0   -3.1
H    -1.2   -3.0    5.0
P     5.4   -0.8    2.5
I    -3.5   -4.3   -2.6
H    -5.4    2.4   -2.2
H    -4.0    2.5   -4.2
H     4.3    1.5   -4.4
H     0.1   -2.4    5.9
P    -0.9   -6.3   -1.5
P    -5.8   -2.6   -1.6
H     0.1   -4.0    5.2
H     4.4    4.1   -2.9
N     4.6    2.5   -4.3
H    -3.3    4.4    4.0
I    -3.7   -2.5    5.3
H    -4.8    3.4    3.8
I    -5.9   -3.3    1.5
I     1.1    4.6    5.2
I     1.4    6.3   -2.7
N    -5.1    2.5   -4.3
H     5.0    3.4    3.8
H    -5.4    1.5   -4.4
C    -5.7    3.0   -3.1
H    -5.3    4.1   -2.9
C    -4.4    4.4    3.9
H     4.4    3.0   -5.1
H     2.9   -2.4   -6.4
H     5.7    2.5   -4.2
I    -0.9   -2.5   -7.0
H    -4.7    5.1    3.1
I    -6.6    0.9    3.5
H     5.1    5.1    3.1
I    -6.4   -0.9   -4.4
I    -3.5    6.6   -2.6
H     1.6    3.0    7.2
C     5.3    4.4    3.9
I     0.5   -0.9    7.9
H    -1.9    4.5   -6.3
H    -5.3    3.0   -5.1
H    -3.3   -1.0    7.2
H     1.6   -3.0   -7.3
H     3.7    5.0    5.1
I     6.3   -4.3   -2.6
H    -4.7   -5.8    3.1
H    -6.8    3.1   -3.2
H     1.5    1.5    7.9
N     2.7   -3.0   -7.2
I     1.1   -6.3    5.2
H     5.1   -5.8    3.1
H    -3.3   -6.5    4.0
I     6.0   -2.5    5.3
P     0.5   -8.0    2.4
H    -2.0   -0.4    8.1
H     0.2    7.9    3.0
H     7.8   -1.0   -3.1
I     3.8    7.5    1.5
N     1.8    2.5    8.0
H    -4.7   -4.9    5.3
H     3.7   -5.9    5.1
N     4.7    5.0    5.1
H     4.4   -6.8   -2.9
H     0.1    6.9    5.2
H    -3.3    0.6    8.0
N    -3.0   -0.4    8.1
H     3.0   -4.0   -7.1
C    -4.4   -6.4    3.9
H    -1.9   -4.9   -7.0
H     5.0   -4.9    5.3
N    -5.0    5.0    5.1
H     6.4    4.4    4.0
I     8.0    1.2    3.6
I     0.7   -8.8   -0.7
H    -4.8    4.5    6.0
I     1.0    1.2   -8.7
H     2.9    2.5    8.1
H     2.9   -7.8   -3.2
H     5.0    4.5    6.0
N    -2.2    5.0   -7.1
N     4.7   -5.8    5.1
H    -5.3   -6.8   -2.9
H     2.9   -1.4   -8.6
I    -1.5   -7.9   -4.3
H    -1.9   -6.4   -6.3
C     5.3   -6.4    3.9
N    -5.0   -5.8    5.1
H    -4.7    6.0    5.3
I    -9.0    2.1   -0.7
H    -0.5    8.8   -2.8
I     3.9    4.6   -7.1
C     0.5    8.5    3.8
C     4.0   -7.8   -3.1
P     4.0    8.3   -1.6
H    -3.3    5.0   -7.2
H    -6.1    5.0    5.1
C     3.3   -2.4   -8.4
H    -0.5    4.4   -8.2
H    -2.0    3.4   -8.5
N    -0.2    7.9    5.1
H    -8.2   -2.4    4.0
H     9.2   -0.4   -2.1
H    -1.9    6.0   -7.0
C     8.9   -1.0   -3.0
H     5.0    6.0    5.3
H    -1.2    7.9    5.0
I     6.3    6.6   -2.6
N    -2.2   -5.8   -7.1
H     1.6    8.5    4.0
I    -4.3    2.9    8.0
C    -1.6    4.4   -8.4
H     0.1    3.1    9.1
H    -4.8   -7.5    3.8
H    -6.8   -2.4   -6.4
I    -3.8    0.9   -8.8
H     4.4   -2.4   -8.3
I    -5.9    7.5    1.5
H     5.0   -7.5    3.8
H     4.3   -8.4   -2.2
H     6.4   -1.0    7.2
I     8.2    2.9   -4.3
C     1.2    3.0    9.2
H    -8.9   -0.4   -4.1
H    -3.3   -5.9   -7.2
H    -6.1   -5.9    5.1
I    -8.3   -4.6   -2.7
H     9.3   -2.0   -2.8
P    -9.2    2.9    2.4
P    -1.5   -0.8   -9.8
H     6.4   -6.5    4.0
H    -4.8   -6.4    6.0
C    -3.6   -1.0    9.3
I     5.4    2.9    8.0
P     8.8    4.6   -1.5
H     5.0   -6.4    6.0
C    -5.7   -7.8   -3.1
H    -5.4   -2.4   -8.3
H    -3.3   -2.0    9.4
H     0.1    9.5    3.7
H     9.2    0.6   -4.3
H    -4.0   -8.4   -4.2
H     6.4    0.6    8.0
I    -5.8    4.6   -7.1
H     3.0   -3.0   -9.3
P    -5.8    8.3   -1.6
H    -5.4   -8.4   -2.2
I     3.9   -6.3   -7.1
H     0.1    8.4    5.9
I     8.6    5.4    1.6
C    -9.3   -2.4    3.8
H     3.0    6.9   -7.1
H     8.5   -3.0    5.0
H     1.6    4.1    9.4
C    -0.8    9.9   -3.0
I     8.6   -5.5    1.6
H     4.4   -7.9   -5.1
H    -4.7   -1.0    9.2
N     9.5   -0.4   -4.2
H    -9.6   -1.4    3.7
H    -9.5   -3.0    3.0
H    -0.5   -6.5   -8.2
H     1.5    2.4   10.1
I    -1.8   -9.7    3.6
H     5.0   -1.0    9.2
H    -1.9    9.8   -3.1
N     6.7   -0.4    8.1
N     4.6   -8.4   -4.3
H   -10.3   -0.4   -2.1
N    -7.1   -3.0   -7.2
I    -3.7    8.4    5.3
H    -6.8   -4.0   -7.1
H     9.2   -1.0   -5.1
H     9.8   -1.4    3.7
I     5.9    0.9   -8.8
I    10.4    2.1   -0.7
C    -1.6   -6.4   -8.4
H    -1.9    5.1   -9.2
I    -1.4   -4.6    9.6
H    -0.6   10.5   -2.1
N    -5.1   -8.4   -4.3
H    -3.4   -0.4   10.2
H     1.6   -7.9    7.2
H   -10.2   -2.0   -2.8
I    -8.3    6.3   -2.7
H     9.9   -3.0    3.0
N    -9.9   -0.4   -4.2
H    -5.3   -7.9   -5.1
P     3.4    2.9   -9.9
H    -6.8   -7.8   -3.2
H     1.6    7.9   -7.3
H    -6.8    2.5    8.1
C    -6.5   -2.4   -8.4
H     6.5    5.0   -7.2
P     8.8   -6.3   -1.5
P    10.3    2.9    2.4
I    -0.9    8.4   -7.0
H     2.9    8.4   -6.4
H     7.8    4.5   -6.3
H     5.7   -8.4   -4.2
N     2.7    7.9   -7.2
I     3.1  -10.0    3.5
I    -8.6    4.6    5.2
C   -10.6   -1.0   -3.0
P     1.1   -2.6   10.7
H    -6.8   -1.4   -8.6
H    -1.9   -5.8   -9.2
I    -5.8   -6.3   -7.1
I     3.5   -4.3    9.7
H    -0.5    9.9   -5.1
H   -10.2    0.6   -4.3
C    10.2   -2.4    3.8
C     6.1   -1.0    9.3
H    -0.5  -10.3   -4.3
P    -4.3   10.0    2.5
N     9.6   -3.0    5.1
H     7.7   -0.4    8.1
H     0.8   10.4   -4.1
H    -8.2    3.0    7.2
H     4.3   -9.4   -4.4
N    -0.2   10.5   -4.2
H    -8.1   -3.0   -7.3
H     6.5   -5.9   -7.2
H    10.6   -0.4   -4.1
I     3.4   10.0   -4.4
H   -10.2   -1.0   -5.1
H    -0.6  -11.2   -2.1
H    -8.2    1.5    7.9
H    -2.0   -7.5   -8.5
N    -9.9   -3.0    5.1
N    -7.9    2.5    8.0
N     7.5    5.0   -7.1
I     8.8   -2.5   -7.0
I     6.0    8.4    5.3
H    -9.6   -2.4    5.9
I    -1.4    6.3    9.6
H     7.8   -4.9   -7.0
H    -9.6   -4.0    5.2
I    -4.2   10.8   -0.6
H     6.5   -2.0    9.4
P     5.4   10.0    2.5
H     1.6   -6.8    9.4
H    -5.4   -9.4   -4.4
P   -10.6    4.6   -1.5
I    -4.2  -10.9   -0.6
I    -3.1   -3.3  -10.8
H     9.8   -2.4    5.9
N     1.8   -8.4    8.0
H     9.9   -4.0    5.2
I    -8.6   -6.3    5.2
H    -6.7   -3.0   -9.3
H     7.8   -6.4   -6.3
N     7.5   -5.8   -7.1
I    -2.1    2.1   11.6
I     2.8   -0.1   11.6
H    -6.8    6.9   -7.1
H     6.3   -0.4   10.2
H     2.9   -8.4    8.1
H     0.1   -7.8    9.1
H     7.8    3.4   -8.5
N    -0.2  -11.3   -4.2
I    -4.3   -7.9    8.0
H     0.8  -11.3   -4.1
I     1.7    5.4  -10.7
I   -11.5    1.2    3.6
P    -6.4    2.9   -9.9
H   -11.7   -1.0   -3.1
H     7.8    6.0   -7.0
I    -9.2   -0.9    7.9
I     1.7   -5.5  -10.7
C     1.2   -7.8    9.2
I   -10.8    5.4    1.6
I     5.6   10.8   -0.6
H    11.3   -2.4    4.0
I     3.5    6.6    9.7
I     8.2   -7.9   -4.3
I   -10.8   -5.5    1.6
H    -0.5   11.4   -4.3
C    -0.8  -11.9   -3.0
P    -3.7    4.6   10.7
I     5.6  -10.9   -0.6
I    -6.3   -4.3    9.7
I    11.1   -4.6   -2.7
H     1.5   -9.4    7.9
I    -8.7    1.2   -8.7
H   -10.9   -3.0    5.0
I   -11.2    2.9   -4.3
C     3.3    8.5   -8.4
P    -9.2   -8.0    2.4
H    -1.9  -11.9   -3.1
H    -8.2    8.5    4.0
P   -10.6   -6.3   -1.5
C     8.1    4.4   -8.4
I     5.4   -7.9    8.0
I    -6.6  -10.0    3.5
H     3.0    7.9   -9.3
H    -6.8    8.4   -6.4
I    -9.0   -8.8   -0.7
I    -6.4   10.0   -4.4
I     3.1   11.7    3.5
H     4.4    8.5   -8.3
I    -1.8   12.0    3.6
H     8.5    7.9    5.0
H    -3.3    9.9    7.2
H    -9.5    7.9    3.0
P    -4.3  -11.7    2.5
I     0.5   10.0    7.9
H     0.1  -12.2    3.7
P     8.2   -0.8   -9.8
N    -7.1    7.9   -7.2
H    -0.5  -11.8   -5.1
I    10.9    4.6    5.2
H    -9.6    6.9    5.2
C    -8.5    3.0    9.2
H     7.8    9.8   -3.1
P    -3.7   -6.3   10.7
I     3.4  -11.7   -4.4
I    10.3   -0.9    7.9
I     0.7   13.0   -0.7
I   -10.6   -2.5   -7.0
I    -1.3   -0.1  -12.9
H     9.9    7.9    3.0
H    -5.4    8.5   -8.3
I     8.0   -9.7    3.6
H    -8.1    4.1    9.4
I     6.6   -3.3  -10.8
I    11.1    6.3   -2.7
I     1.0   -9.7   -8.7
P     5.4  -11.7    2.5
H     2.9    9.5   -8.6
H     9.9    6.9    5.2
H     9.3    8.8   -2.8
C    -9.3    8.5    3.8
H     9.2    4.4   -8.2
H     7.9    5.1   -9.2
P     6.0    4.6   10.7
P     3.4   -8.0   -9.9
H    -0.5  -12.9   -2.8
P    10.3   -8.0    2.4
H     1.5   -8.4   10.1
H    -8.2    2.4   10.1
I    -6.3    6.6    9.7
I    12.8    0.9    3.5
C     8.1   -6.4   -8.4
H    -3.3    8.8    9.4
H    -2.0   10.4    8.1
N     9.6    7.9    5.1
H    -8.2   -7.9    7.2
H    12.7    3.1   -3.2
H    -3.3  -10.3    8.0
H     7.9   -5.8   -9.2
H    -8.1    7.9   -7.3
I     8.3   -4.6    9.6
H    -6.8   -8.4    8.1
I    -3.1    7.5  -10.8
N    -3.0   10.5    8.1
I    -7.0   -0.1   11.6
P     1.1    8.3   10.7
H    -9.6    3.1    9.1
C    -6.5    8.5   -8.4
I    10.9   -6.3    5.2
C     8.9    9.9   -3.0
N    -9.9    7.9    5.1
I     3.5    2.1  -13.0
I    10.4   -8.8   -0.7
H    11.3    3.0    7.2
H     7.8   -7.5   -8.5
H     9.9    3.1    9.1
H   -10.2    8.8   -2.8
H    11.3   -3.0   -7.3
H     4.3   12.3   -4.4
C    10.2    8.5    3.8
P     6.0   -6.3   10.7
