         400
 sphere cut out from bulk 
P    -0.8    1.1   -0.0
I    -0.8   -1.6    1.8
I     2.4    1.2    0.2
I    -0.8   -0.7   -2.6
H     2.4   -2.1   -0.1
H     1.0   -3.3   -0.1
H     1.6    1.0   -3.2
C     2.1   -3.1   -0.3
H     2.7    0.7    2.8
I    -0.8    2.9    2.6
I    -4.0    1.2    0.2
I    -0.9    3.7   -1.8
H     2.3   -3.4   -1.3
H    -4.1   -2.1   -0.1
H    -3.1    1.1   -3.3
H    -2.5   -3.9    0.4
C     2.4    0.9   -3.9
H     2.6    3.9    0.5
H    -3.8    0.7    2.8
H     1.0    1.2    4.5
N     2.9    0.4    3.8
H    -2.6    0.6    4.0
H     2.6   -0.6    4.0
H     3.4    1.1   -3.3
H     2.7   -3.8    1.6
N     2.9   -4.0    0.6
H     2.4   -0.1   -4.4
N    -3.6    0.4    3.8
C     2.1    1.3    4.7
C    -4.4   -3.1   -0.3
N    -3.6   -4.0    0.6
H    -3.8    3.9    0.5
H    -4.1   -3.4   -1.3
H     3.9   -3.9    0.4
I    -0.8   -5.2   -1.8
H    -3.8   -0.6    4.0
P    -0.8   -3.3   -4.4
H    -3.7   -3.8    1.6
H     3.9    0.6    4.0
H     2.3    2.4    4.5
C    -4.0    0.9   -3.9
P    -0.8   -3.4    4.5
H    -2.6    5.0    0.4
N     2.8    4.9    0.6
H     1.0    5.6   -0.1
H     2.7   -5.0    0.5
P     5.7    1.1   -0.0
N     2.4    2.0   -5.0
H     2.4    2.9   -4.6
I     2.5   -3.3    4.3
H    -4.0   -0.1   -4.4
H    -4.9    1.0   -3.2
H     2.7    5.1    1.6
H     1.5    1.9   -5.5
H     2.3    5.5   -1.3
I     5.6   -1.6    1.8
N    -3.6    4.9    0.6
C     2.0    5.8   -0.3
I     2.4   -3.4   -4.5
I     5.7   -0.7   -2.6
H     2.3    1.0    5.8
H    -3.8   -5.0    0.5
H     3.8    5.0    0.4
H    -5.4   -3.3   -0.1
I    -0.8   -0.7    6.3
H    -4.1    2.4    4.5
H    -3.8    5.1    1.6
C    -4.4    1.3    4.7
I    -0.8   -6.0    2.6
I    -4.0   -3.3    4.3
N    -4.1    2.0   -5.0
H     3.2    1.9   -5.6
H    -3.2    1.9   -5.6
H    -4.1    2.9   -4.6
I     5.6    2.9    2.6
I    -4.0   -3.4   -4.5
I     5.6    3.7   -1.8
I    -0.9    2.9   -6.3
H    -4.2    5.5   -1.3
P    -0.8    5.5    4.5
P    -0.9    5.6   -4.4
H    -5.4    1.2    4.5
H    -4.2    1.0    5.8
H     2.3    6.8   -0.1
C    -4.4    5.8   -0.3
P    -7.2    1.1   -0.0
I    -0.8   -1.6   -7.1
I     2.4    5.5   -4.5
I     2.4    5.7    4.3
I    -0.9    7.4    1.8
I    -7.3   -1.6    1.8
H    -4.9    1.9   -5.5
I    -7.2   -0.7   -2.6
H    -5.5    5.6   -0.1
I     5.6   -5.2   -1.8
P    -0.7   -7.8   -0.0
P     5.6   -3.3   -4.4
H     2.4   -6.0   -4.6
H    -4.1    6.8   -0.1
P     5.7   -3.4    4.5
I    -0.8    3.7    7.1
I     2.5   -7.7    0.2
H     7.5   -3.3   -0.1
I    -4.1    5.7    4.3
I    -4.1    5.5   -4.5
I    -7.3    2.9    2.6
H     2.4   -6.6    4.5
I    -7.3    3.7   -1.8
H     1.5   -2.6   -7.9
I     5.6   -0.7    6.3
H    -4.0   -6.0   -4.6
H     1.6   -3.4    7.7
I    -0.8    8.2   -2.6
H     1.6   -7.9   -3.2
I     5.7   -6.0    2.6
I    -4.0   -7.7    0.2
H     8.0    1.0   -3.2
I    -0.8   -6.0   -6.3
I    -0.7   -5.2    7.1
H     7.4    1.2    4.5
H    -3.2   -2.5   -7.8
H     3.2   -2.5   -7.8
N     2.4   -7.0   -5.0
I     5.6    2.9   -6.3
H    -4.0   -6.6    4.5
I     8.9    1.2    0.2
P    -0.8    1.1    8.9
H    -3.1   -3.4    7.8
H    -3.0   -7.8   -3.3
H     1.1   -7.8    4.5
P     5.6    5.6   -4.4
H     8.8   -2.1   -0.1
H     1.6   -7.0   -5.5
P     5.6    5.5    4.5
I    -7.3   -5.2   -1.8
C     8.5   -3.1   -0.3
P    -7.3   -3.3   -4.4
P    -0.8    1.1   -9.0
N     2.4   -2.5   -8.4
P    -7.2   -3.4    4.5
H     3.4   -3.4    7.8
H     2.7   -8.3    2.8
H     3.4   -7.8   -3.3
C     2.1   -7.6    4.7
I     5.6   -1.6   -7.1
C     2.5   -8.0   -3.9
H     2.4   -1.5   -8.8
I     2.4    1.0   -8.9
H     7.4    5.6   -0.1
I     2.4    1.0    9.0
C     2.5   -3.5    8.4
I     5.6    7.4    1.8
N    -4.0   -7.0   -5.0
H     2.4   -1.5    9.0
H    -3.7   -8.3    2.8
H     8.8   -3.4   -1.3
H    -3.2   -7.0   -5.6
H     3.3   -7.0   -5.6
H     9.1    0.7    2.8
H     1.5    5.5    7.7
H    -2.5   -8.4    4.0
H     2.6    8.3    4.0
I    -7.3   -0.7    6.3
H    -4.9   -2.6   -7.9
N    -4.0   -2.5   -8.4
P     5.7   -7.8   -0.0
H    -4.8   -3.4    7.7
C    -3.9   -8.0   -3.9
C     8.9    0.9   -3.9
N     2.9   -8.5    3.8
I    -7.2   -6.0    2.6
I     5.6    3.7    7.1
H    -4.8   -7.9   -3.2
H    -9.0   -3.9    0.4
C     8.5    1.3    4.7
H    -4.0   -1.5   -8.8
I    -4.1    1.0   -8.9
H     7.9    1.9   -5.5
H     9.1    3.9    0.5
I    -4.1    1.0    9.0
H    -9.0    0.6    4.0
H     8.9   -0.1   -4.4
C    -4.0   -3.5    8.4
H     9.1   -0.6    4.0
C    -4.3   -7.6    4.7
N    -3.5   -8.5    3.8
H    -4.0   -1.5    9.0
I    -0.7   -9.7   -2.6
P    -0.8   10.0   -0.0
H    -3.9    8.3    4.0
H     2.3   -7.9    5.8
N     2.4   -2.5    9.4
H     9.2   -3.8    1.6
H    -3.1    5.5    7.8
I    -7.3    2.9   -6.3
H     3.9   -8.4    4.0
N     9.3    0.4    3.8
H     3.3    5.5    7.8
H     2.4    4.4    8.8
H    -9.5    1.1   -3.3
H     2.4    8.9   -4.4
P    -7.3    5.5    4.5
H     8.8    2.4    4.5
N     9.3   -4.0    0.6
H    -4.9   -7.0   -5.5
P    -7.3    5.6   -4.4
H     2.5   -4.5    8.8
H     1.5    6.3   -7.9
C     2.4    5.4    8.4
I     5.6    8.2   -2.6
C     8.5    5.8   -0.3
I    -0.9    7.3   -7.1
H     2.5   -9.0   -4.4
I    -7.3   -1.6   -7.1
N     8.8    2.0   -5.0
H     2.6    9.6    2.8
H     2.4    4.4   -9.0
I    -0.9    8.2    6.3
H     8.8    2.9   -4.6
H    -9.0    5.0    0.4
H     8.7    5.5   -1.3
I     5.7   -6.0   -6.3
I     2.4   10.1    0.2
I     8.9   -3.3    4.3
H     2.5   -4.5   -9.0
H     9.8    1.1   -3.3
H     9.1   -5.0    0.5
H     1.5   -2.6   10.0
C     2.5   -3.5   -9.5
I     5.7   -5.2    7.1
H    -5.4   -7.8    4.5
N     2.8    9.3    3.8
N     9.3    4.9    0.6
I     8.9   -3.4   -4.5
H     8.7    1.0    5.8
I   -10.5    1.2    0.2
I    -7.3    7.4    1.8
P     5.6    1.1    8.9
N    -4.0   -2.5    9.4
H     9.1    5.1    1.6
H     3.2    6.4   -7.8
H     1.5   10.0   -3.2
H    -4.1   -7.9    5.8
H    -3.3    6.4   -7.8
H   -10.2    0.7    2.8
H    -2.6    9.5    4.0
P    -7.2   -7.8   -0.0
H     2.7   -9.5    4.0
I    -0.8  -10.5    1.8
H    -4.0    4.4    8.8
H    -4.9    5.5    7.7
P     5.6    1.1   -9.0
H    -4.1    8.9   -4.4
H    -4.0   -4.5    8.8
H    -3.8    9.6    2.8
C    -4.0    5.4    8.4
H   -10.5   -2.1   -0.1
H    -4.0   -9.0   -4.4
N    -3.6    9.3    3.8
N   -10.0    0.4    3.8
I    -7.2    3.7    7.1
N   -10.0   -4.0    0.6
H    -4.0    4.4   -9.0
H     1.6   -3.4  -10.2
C     2.4    9.8   -3.9
H    -3.2   -2.5   10.1
N     2.3    6.4   -8.4
H     3.2   -2.5   10.1
H    -4.0   -4.5   -9.0
I    -0.8   -1.6   10.8
C    -4.0   -3.5   -9.5
I    -4.1   10.1    0.2
H    -3.7   -9.5    4.0
H     3.8    9.5    4.0
H   -10.2   -3.8    1.6
H    -3.1   10.0   -3.3
H   -10.3    3.9    0.5
H   -10.3   -0.6    4.0
H     3.3   10.0   -3.3
H    -3.1   -3.4  -10.1
H    10.3   -3.9    0.4
H     0.9   10.1    4.5
H    10.3    0.6    4.0
H     8.8    6.8   -0.1
H     3.4   -3.4  -10.1
H   -10.6   -3.4   -1.3
C   -10.5    0.9   -3.9
C     2.4    5.4   -9.5
N   -10.1    4.9    0.6
I    -7.3    8.2   -2.6
C   -10.8   -3.1   -0.3
H    -5.0    6.3   -7.9
H     2.4  -11.0   -0.1
I     8.8    5.5   -4.5
H     9.6    1.9   -5.6
I    -7.2   -6.0   -6.3
H   -10.5   -0.1   -4.4
I    -7.2   -5.2    7.1
C    -4.1    9.8   -3.9
I     8.8    5.7    4.3
H    -9.7    1.9   -5.6
N    -4.1    6.4   -8.4
H   -10.2   -5.0    0.5
H    -4.9   -2.6   10.0
P     5.6   10.0   -0.0
C     2.0   10.2    4.7
H    10.3    5.0    0.4
I    -0.8    3.7  -10.8
H     8.0   -2.6   -7.9
I     5.7   -9.7   -2.6
I    -0.8   -9.6    6.3
P    -7.3    1.1    8.9
H   -10.2    5.1    1.6
H    -4.9   10.0   -3.2
P    -7.3    1.1   -9.0
I     5.6    7.3   -7.1
H     8.9   -6.0   -4.6
N     2.3    6.4    9.4
C    -4.0    5.4   -9.5
H     8.0   -3.4    7.7
H     1.5    5.5  -10.2
I    -0.8   -0.7  -11.6
H     7.5   -7.8    4.5
I     5.5    8.2    6.3
H   -10.6    2.4    4.5
H    -4.0  -11.0   -0.1
H     2.2   10.0    5.8
H     8.1   -7.9   -3.2
H     2.3    7.4   -8.8
I   -10.4   -3.3    4.3
H    -4.8   -3.4  -10.2
N   -10.5    2.0   -5.0
I     8.9   -7.7    0.2
P    -0.8   -7.8    8.9
H   -11.3    1.0   -3.2
H   -10.5    2.9   -4.6
I   -10.5   -3.4   -4.5
C   -10.8    1.3    4.7
H     2.3    7.4    9.0
H    -3.1    5.5  -10.1
H     8.8   -6.6    4.5
P    -0.8   -7.8   -9.0
H     1.5    6.3   10.0
I    -0.9    2.9   11.6
H     3.3    5.5  -10.1
H     8.0   -7.0   -5.5
I    -0.7   -5.2  -10.8
H   -10.6    5.5   -1.3
I     5.7  -10.5    1.8
H   -10.6    1.0    5.8
N    -4.1    6.4    9.4
C    -4.4   10.2    4.7
I     2.4   -7.9   -8.9
I    -0.9   11.8    2.6
P    12.1    1.1   -0.0
I     2.4   -7.9    9.0
N     2.3   10.9   -5.0
H     1.4   10.8   -5.5
H    -4.1    7.4   -8.8
I     5.6   -1.6   10.8
C     2.1  -12.1   -0.3
H     1.1  -12.2   -0.1
H    -4.2   10.0    5.8
I    -7.2   -9.7   -2.6
C   -10.9    5.8   -0.3
I    12.1   -1.6    1.8
H   -11.9   -3.3   -0.1
N     8.9   -7.0   -5.0
H     3.2    6.4   10.1
H    -5.5   10.1    4.5
H    -3.3    6.4   10.1
H     2.3    1.0  -12.1
P    -7.3   10.0   -0.0
H    -4.1    7.4    9.0
H     2.3   11.3    4.5
H     8.0    5.5    7.7
C     8.6   -7.6    4.7
I    12.1   -0.7   -2.6
N     8.8   -2.5   -8.4
I    -4.0   -7.9   -8.9
H    -4.9    5.5  -10.2
I    -4.0   -7.9    9.0
I    -7.3    7.3   -7.1
H     1.5    1.9   12.3
H   -10.6    6.8   -0.1
H     3.1   10.8   -5.6
I     8.8    1.0   -8.9
H     8.8   -1.5   -8.8
C     8.9   -8.0   -3.9
H     2.4  -12.3   -1.3
I     8.8    1.0    9.0
H    -3.3   10.8   -5.6
N    -4.1   10.9   -5.0
I    -7.3    8.2    6.3
I    12.0    2.9    2.6
H     9.2   -8.3    2.8
I   -10.5    5.7    4.3
H    -9.7   -2.5   -7.8
H     9.7   -2.5   -7.8
I   -10.5    5.5   -4.5
