         400
 sphere cut out from bulk 
I    -0.8   -0.8    0.1
P     1.7    1.1   -0.0
H    -2.6    1.1   -1.7
H    -2.5    1.5    1.8
I    -0.2    3.6    0.1
I     1.5    1.0   -3.3
H    -1.5    1.2    3.2
I     1.8    1.2    3.2
H     1.3   -3.2    1.7
I     3.7   -1.4   -0.0
H     1.3   -1.6   -3.5
H     1.6   -3.3   -1.7
C    -2.5    1.4    2.9
H    -1.1    1.6   -3.5
H     1.6   -2.1    3.1
C    -2.9    0.9   -2.7
H    -2.8   -0.1   -3.0
P    -2.7   -3.3   -0.0
H    -3.2   -0.5    2.9
C     1.7   -3.1    2.7
H     0.1   -2.9   -3.5
N    -2.1    1.8   -3.6
N     1.1   -2.7   -3.6
N    -3.5    0.4    3.3
C     1.9   -3.5   -2.7
H    -2.3    2.8   -3.3
H    -2.8    2.4    3.3
H    -4.0    1.2   -2.8
H     2.8   -3.4    2.7
H     1.2    3.8    3.3
I     4.2    3.1   -0.1
H     3.0   -3.3   -2.9
I    -0.3   -5.3    0.1
H     0.0   -3.9    3.7
I    -2.5   -3.4   -3.2
I    -2.7   -3.3    3.3
H    -4.4    0.6    2.9
H     4.4    0.6    2.9
I    -5.2   -1.4   -0.0
H    -2.5    1.8   -4.6
H     1.8    4.4   -2.9
N     1.0   -4.1    3.6
H    -3.5    0.3    4.3
H     1.3   -2.9   -4.6
I    -4.7    3.1   -0.1
H     1.7   -4.6   -2.9
H     4.9    1.2   -2.8
H     1.4    5.7    1.7
H     1.7    5.6   -1.7
N     1.1    4.8    3.6
H     1.2   -5.1    3.3
P    -2.7    5.6   -0.0
H     0.1    5.0    3.7
H     1.4   -4.0    4.6
N     5.4    0.4    3.3
C     2.0    5.4   -2.7
H     5.7   -0.5    2.9
H     6.3    1.1   -1.7
C     5.9    0.9   -2.7
I    -1.1   -0.5   -6.5
C     1.8    5.8    2.7
P     1.6    1.1    6.4
I    -0.1   -1.7    6.5
P     1.7    1.2   -6.5
H     2.8    5.5    2.7
H     6.4    1.5    1.8
H     6.1   -0.1   -3.0
H     1.5    4.9    4.6
H     5.3    0.3    4.3
I    -2.5    5.5   -3.2
P     6.1   -3.3   -0.0
H     0.1    6.1   -3.5
I    -2.6    5.6    3.3
H     3.0    5.6   -2.9
I    -1.1    2.8    6.4
C     6.4    1.4    2.9
I     4.1   -5.8   -0.1
P    -7.2    1.1   -0.0
H     6.1    2.4    3.3
H    -2.3   -6.1   -3.3
N     1.1    6.3   -3.6
H    -5.9   -3.3   -2.9
H    -6.1   -3.4    2.7
I    -4.7   -5.8   -0.1
I     3.4   -1.6   -6.5
I     0.0    3.9   -6.4
H     1.6    6.8    3.1
I     6.2   -3.3    3.3
H     1.4    6.1   -4.6
P    -2.8   -3.3   -6.5
P    -2.8   -3.4    6.5
I     4.3   -0.7    6.5
H    -2.9   -6.5    3.3
N     6.7    1.8   -3.6
I     6.3   -3.4   -3.2
I    -7.1    1.2    3.2
H     6.6    2.8   -3.3
I    -4.5   -0.7    6.5
P     1.6   -7.8   -0.0
H    -2.5   -7.4    1.8
H     6.4    1.8   -4.6
H    -7.2   -3.3   -1.7
I     8.1   -0.8    0.1
I    -0.8    8.1    0.1
H     7.4    1.2    3.2
I    -7.4    1.0   -3.3
I    -0.0   -5.0   -6.4
H     1.3    7.3   -3.5
I     3.3    3.8    6.4
H    -7.3   -2.1    3.1
H    -1.2   -7.3   -3.5
I    -4.4    2.9   -6.4
N    -2.2   -7.1   -3.6
C    -6.9   -3.5   -2.7
C    -7.1   -3.1    2.7
I     4.5    2.9   -6.4
P     6.2    5.6   -0.0
C    -2.5   -7.5    2.9
H    -7.6   -3.2    1.7
I     3.7    7.6   -0.0
H    -2.6   -7.9   -1.7
H    -7.6   -1.6   -3.5
H    -1.6   -7.8    3.2
I     1.7   -7.7    3.2
H    -6.0    5.5    2.7
H    -5.8    5.6   -2.9
I    -5.5   -1.6   -6.5
H     7.7    1.6   -3.5
I     1.4   -7.9   -3.3
I     3.2   -5.1    6.4
H    -2.9    0.5   -8.3
H    -7.1    4.4   -2.9
H    -2.5   -7.2   -4.6
P    -2.8    5.5    6.5
C    -3.0   -8.0   -2.7
I    -1.2   -6.1    6.4
H    -7.1   -4.6   -2.9
H     1.8   -2.8    8.3
N    -7.8   -2.7   -3.6
P    -2.7    5.6   -6.5
I     6.2    5.6    3.3
H    -3.2    1.5    8.3
I     6.4    5.5   -3.2
I    -5.2    7.6   -0.0
H    -4.0   -7.7   -2.8
C    -6.9    5.4   -2.7
H    -7.7    3.8    3.3
H    -7.2    5.6   -1.7
H    -7.6   -2.9   -4.6
I    -5.6    3.8    6.4
I     8.7    3.6    0.1
H    -3.2    8.4    2.9
H     6.0   -6.5    3.3
P     6.0   -3.4    6.5
P     6.1   -3.3   -6.5
H     4.8   -7.7   -2.8
H     6.5   -6.1   -3.3
C    -7.1    5.8    2.7
H     1.0   -4.0   -8.6
N    -7.8   -4.1    3.6
H    -7.5    5.7    1.7
H    -7.5   -4.0    4.6
P    -7.1    1.2   -6.5
H    -2.7    8.8   -3.0
I    -9.7   -0.8    0.1
I    -0.0    7.2    6.5
N    -3.5   -8.5    3.3
I    -9.1    3.6    0.1
I    -0.9   -9.7    0.1
H    -7.7   -5.1    3.3
P    -7.3    1.1    6.4
H     4.4   -8.3    2.9
I    -4.4   -6.1   -6.4
I     4.4   -6.1   -6.4
N    -3.3    0.5   -9.3
N    -7.8    4.8    3.6
H    -4.5   -8.3    2.9
I     1.8    1.0    9.7
H    -8.8   -2.9   -3.5
I     1.9    1.3   -9.7
H    -2.8   -9.0   -3.0
H     6.3   -7.4    1.8
I    -5.6   -5.1    6.4
H     1.1    4.9   -8.6
N     2.1   -2.7    9.3
H     2.0   -1.7    9.6
H     1.7   -2.0   -9.6
H    -7.4    4.9    4.6
H     8.9   -2.9   -3.5
N    -3.4    1.7    9.3
I     8.6   -5.3    0.1
H    -3.1   -0.5   -9.6
H     5.7    1.5    8.3
H     6.2   -7.9   -1.7
P     1.7   10.0   -0.0
I     7.8   -0.5   -6.5
H    -1.6    1.1   10.0
C     6.3   -7.5    2.9
P     1.7   -7.7   -6.5
H    -4.3    0.7   -9.3
H     6.0    0.5   -8.3
H    -3.6   -8.6    4.3
P     1.5   -7.9    6.4
C     5.9   -8.0   -2.7
H     3.2   -3.0    9.4
H    -8.9   -3.9    3.7
H     4.6    0.7   -9.3
H     8.9   -3.9    3.7
H    -1.5    1.2  -10.2
H    -2.8   -0.2   10.0
N     6.7   -7.1   -3.6
H    -3.3    2.7    9.5
I     3.5    7.3   -6.5
H    -7.2    6.8    3.1
H    -3.3   -9.5    2.9
H    -2.5   10.0   -1.7
I     7.7    2.8    6.4
H    -2.7    2.4   -9.8
N    -3.4    9.3    3.3
P     6.1    5.5    6.5
N     1.1   -4.0   -9.6
H     1.9    6.1    8.3
I    -2.6   -3.2   -9.7
H     4.4    1.5    9.4
H    -4.5    1.5    9.4
P     6.1    5.6   -6.5
I     1.5    9.9   -3.3
H     5.7    8.4    2.9
C    -2.6    0.8   10.2
I    -9.1   -5.3    0.1
N     5.4   -8.5    3.3
N    -7.7    6.3   -3.6
C    -2.6    1.4  -10.2
C    -2.9    9.8   -2.7
H     6.4   -7.2   -4.6
P    10.6    1.1   -0.0
H     3.0   -3.2   -9.7
P    -7.2   -7.8   -0.0
H     0.1   -3.7  -10.0
I    -1.0    8.4   -6.5
H     0.3   -3.4   10.1
C     2.0   -2.9  -10.1
H    -1.5   10.1    3.2
H    -7.5    6.1   -4.6
H   -10.0    1.6   -3.5
I     1.8   10.1    3.2
I    -3.1   -3.6    9.6
H    -3.5    9.2    4.3
H    -8.8    5.0    3.7
H    10.2   -3.2    1.7
H    -2.4   10.4    1.8
H    10.1   -1.6   -3.5
N     5.6    0.5   -9.3
H     1.6    4.2    9.9
H     1.4    4.0  -10.0
N     5.4    1.7    9.3
H     8.9    5.0    3.7
I     3.6  -10.3   -0.0
H    -4.4    9.5    2.9
N     1.1    5.0   -9.6
I    10.4    1.0   -3.3
C     1.4   -3.6   10.2
N    10.0   -2.7   -3.6
H   -10.4    1.2    3.2
H     4.5    9.5    2.9
H     5.3   -8.6    4.3
C    -2.4   10.4    2.9
I    -7.1   -7.7    3.2
H     1.5   -4.7    9.9
H    -7.6    7.3   -3.5
I     8.8   -1.7    6.5
H    10.5   -2.1    3.1
H     7.3   -7.8    3.2
H    10.5   -3.3   -1.7
H    -1.1   10.5   -3.5
H     6.1    8.8   -3.0
H     1.2  -10.6   -3.5
H     7.7   -7.3   -3.5
I    10.6    1.2    3.2
H    -8.7    6.1   -3.5
H    -3.9   10.1   -2.8
I    -5.4    7.3   -6.5
H     5.7   -0.5   -9.6
H     1.3   -4.9  -10.0
I    -9.0   -1.7    6.5
H     0.2    5.2  -10.0
N     5.5    9.3    3.3
H    -7.0   -2.8    8.3
H     6.0   -9.0   -3.0
H    10.1    3.8    3.3
N     9.9   -4.1    3.6
H     5.6    2.7    9.5
I    -7.4   -7.9   -3.3
H    -5.7   -3.0    9.4
H     5.6   -9.5    2.9
I     4.4    8.3    6.5
C    10.6   -3.1    2.7
H     9.0    6.1   -3.5
N     2.2    6.2    9.3
I    -4.5    8.3    6.5
I    -3.0    5.3    9.6
I     8.1    8.1    0.1
I    -1.1   -9.4   -6.5
H     5.4    9.2    4.3
N    -2.1   10.7   -3.6
I    -2.5    5.7   -9.7
H     0.3    5.5   10.1
I    -5.3  -10.3   -0.0
H    10.2   -2.9   -4.6
H     3.2    5.9    9.4
C     1.4    5.3   10.2
H     1.5  -11.0    3.1
H   -11.3    1.5    1.8
H     4.9   10.1   -2.8
I    -8.8    3.9   -6.4
H    -3.3   -7.4    8.3
N     9.9    4.8    3.6
H   -11.5    1.1   -1.7
H    -2.9    1.1   11.2
H    -3.0    1.4  -11.2
H     3.1    5.7   -9.7
C    10.8   -3.5   -2.7
I     8.9    3.9   -6.4
H     6.1   -0.2   10.0
H     2.1   -2.9  -11.1
H    10.0   -5.1    3.3
N   -11.0    1.8   -3.6
H    -5.8   -3.2   -9.7
I     7.7   -6.1    6.4
H    -3.3   -6.2    9.5
C   -11.4    1.4    2.9
I     5.8   -3.6    9.6
N    -6.7   -2.7    9.3
H     6.2    2.4   -9.8
C     6.0    9.8   -2.7
H    10.2    5.7    1.7
H    -2.4   10.7   -4.6
H    10.6    4.4   -2.9
I    -9.9   -0.5   -6.5
H     1.7   -3.5   11.2
H    10.6   -4.6   -2.9
C     2.1    6.0  -10.1
H     6.3   10.0   -1.7
H    -6.9   -1.7    9.6
H    10.3   -4.0    4.6
H   -11.1    2.8   -3.3
P     1.6   10.0    6.4
I     6.3   -3.2   -9.7
I    -7.0    1.3   -9.7
C     6.3    0.8   10.2
I    -7.1    1.0    9.7
H     1.8    7.0   -9.6
H   -11.6   -0.1   -3.0
I     8.9   -5.0   -6.4
H    -2.8   -6.5   -9.8
I    -8.9   -5.0   -6.4
C     6.3    1.4  -10.2
P   -11.6   -3.3   -0.0
H    -2.8   11.3    3.3
H    10.6    5.6   -1.7
P     1.8   10.1   -6.5
C   -11.8    0.9   -2.7
H    -7.1   -2.0   -9.6
H     2.1    7.2    9.6
H    -2.9   -8.4   -8.3
N     1.0  -11.6   -3.6
I   -10.0    2.8    6.4
N    -3.5   -7.2    9.3
H     0.0  -11.8   -3.5
P    10.4    1.1    6.4
P    -7.1   10.0   -0.0
H     1.3  -12.1    1.7
H    10.3    4.9    4.6
I     4.3   -9.6    6.5
I   -11.4   -3.4   -3.2
H    -7.9   -4.0   -8.6
N    10.0    6.3   -3.6
H   -11.3    1.8   -4.6
H   -11.7    2.4    3.3
H     6.5   10.4    1.8
P    -7.2   -7.7   -6.5
H    -2.2   11.7   -3.3
H     1.6  -12.2   -1.7
C    10.8    5.4   -2.7
H   -12.1   -0.5    2.9
I    -4.6   -9.6    6.5
C    10.7    5.8    2.7
I     1.8   -7.6   -9.7
H    11.7   -3.4    2.7
H     7.3    1.1   10.0
I   -11.6   -3.3    3.3
H    -5.7    5.9    9.4
C     1.7  -12.0    2.7
H     5.6   -7.4    8.3
I     5.8    5.3    9.6
P    10.6    1.2   -6.5
H    -7.0    6.1    8.3
I    -0.1  -10.6    6.5
C    -6.8   -2.9  -10.1
C     6.4   10.4    2.9
