         400
 sphere cut out from bulk 
I     0.8    1.3   -0.5
H    -0.8    0.0   -2.1
H    -1.1   -1.6   -1.9
N    -1.5   -0.7   -2.3
H    -2.4   -0.5   -1.8
P     2.8   -1.2   -0.0
I     0.3   -3.2   -0.5
H    -2.3   -1.1    2.1
I    -3.6    0.8    0.2
H    -0.4   -0.8    3.6
P    -1.6    3.4   -0.0
H    -1.4   -2.6    2.4
C    -2.0   -1.8    2.8
I     2.2   -1.0    3.1
H     2.5    1.9    2.4
C    -1.7   -0.9   -3.8
N    -1.3   -1.2    3.9
H    -0.8   -1.1   -4.3
H     2.3    2.3   -3.1
H    -2.2    0.1   -4.2
H    -1.8   -0.4    4.4
I    -1.1    3.5    3.1
I     3.3   -1.4   -3.3
H    -2.5   -1.7   -3.9
H    -3.0   -2.2    3.2
C     3.2    2.7    2.8
H     1.2    3.8   -3.0
I    -2.2    3.2   -3.3
H    -1.0   -1.9    4.7
H     3.4    3.5    2.1
C     2.2    3.4   -3.4
I     5.3    0.8    0.2
H     1.5    3.7    3.6
H     3.3    4.1   -1.8
I    -4.2   -3.8    0.3
H     4.1    2.3    3.2
N     2.4    3.4    3.9
H     2.2    2.6    4.7
I     0.3    5.9   -0.5
P    -1.6   -5.7   -0.0
H     3.3   -3.9   -3.1
N     3.3    4.2   -2.8
I     4.7   -3.8    0.3
H     2.2    3.5   -4.5
H     1.2   -5.3   -3.0
H    -4.8    2.3    3.2
H     3.3   -5.0   -1.8
P    -6.1   -1.2   -0.0
I     0.8    1.3   -6.2
H     4.2    3.8   -3.1
I    -1.1   -5.6    3.1
N     3.3   -4.9   -2.8
H     1.5   -5.3    3.6
I    -5.6   -1.4   -3.3
H     3.0    4.1    4.4
H    -4.6    3.8   -3.1
I    -4.2    5.3    0.3
I     0.9    1.4    6.6
H     6.5   -0.5   -1.8
H     3.4   -5.6    2.1
H     3.3    5.2   -3.1
H    -5.5    3.5    2.1
I    -3.5    0.8    5.9
C    -5.7    2.7    2.8
I     0.2   -3.2   -6.2
C     2.2   -5.7   -3.4
H     6.6   -1.1    2.1
P     2.8   -1.1    6.3
H    -6.3    1.9    2.4
H    -1.4    6.5    2.4
I    -2.2   -5.9   -3.3
H     5.9   -2.2    3.2
P     2.8   -1.3   -6.4
I     4.7    5.3    0.3
H    -5.6    4.1   -1.8
H     3.0   -5.0    4.4
I     0.2   -3.1    6.6
N     2.4   -5.7    3.9
P    -1.7    3.4    6.3
I    -6.7   -1.0    3.1
P    -1.8    3.3   -6.4
H     4.2   -5.3   -3.1
N    -5.6    4.2   -2.8
H     2.2   -5.6   -4.5
H    -5.6   -3.9   -3.1
C     6.8   -1.8    2.8
C     3.2   -6.3    2.8
H    -5.6   -5.0   -1.8
H    -6.6    2.3   -3.1
H    -4.7   -5.3   -3.1
H     6.4   -1.7   -3.9
H     2.2   -6.7   -3.1
N     7.4   -0.7   -2.3
H    -1.1    7.5   -1.9
I    -3.6    0.7   -6.9
I     0.8   -7.7   -0.5
H     6.7    0.1   -4.2
H     2.5   -7.1    2.4
N    -5.6   -4.9   -2.8
I     5.3    0.8    5.9
P     7.3    3.4   -0.0
C    -2.0    7.3    2.8
I     6.7    3.2   -3.3
H    -5.5   -5.6    2.1
C     7.1   -0.9   -3.8
H    -3.0    6.9    3.2
H     7.8   -1.6   -1.9
I    -4.2   -3.7    5.9
I    -8.0    1.3   -0.5
H    -5.6    5.2   -3.1
H     2.2   -6.4    4.7
H     7.4   -2.6    2.4
C    -6.7    3.4   -3.4
N    -6.5    3.4    3.9
H     7.1   -0.4    4.4
H     8.1    0.0   -2.1
P     2.8    7.9   -0.0
I     4.7   -3.7    5.9
H    -1.1   -2.0   -8.1
H    -5.9    4.1    4.4
I     0.2    5.9   -6.2
H     4.1   -6.8    3.2
H    -6.7    2.6    4.7
H    -0.7   -1.0    8.5
H    -2.3    8.0    2.1
H    -1.9   -0.5   -8.4
H    -1.0    7.2    4.7
N     7.6   -1.2    3.9
P    -1.7   -5.7    6.3
H    -2.4    7.4   -3.9
I     5.3    0.7   -6.9
H     2.1    2.5   -8.1
H    -6.7    3.5   -4.5
N    -1.5    8.3   -2.3
P    -6.1   -1.1    6.3
P    -1.8   -5.8   -6.4
H    -2.1    0.2    8.6
H    -4.8   -6.8    3.2
I     0.2    6.0    6.6
H    -5.9   -5.0    4.4
N    -1.3    7.9    3.9
I     2.2    8.1    3.1
P    -6.1   -1.3   -6.4
I    -4.3   -3.9   -6.9
I     3.3    7.7   -3.3
C    -5.7   -6.3    2.8
I    -4.2    5.3    5.9
H    -0.4    8.3    3.6
H    -7.4    3.7    3.6
N    -1.3   -1.3   -8.8
I    -3.6   -8.3    0.2
H    -0.8    8.0   -4.3
H    -7.6    3.8   -3.0
I     7.8    3.5    3.1
H    -2.3    8.6   -1.8
I     4.6   -3.9   -6.9
C    -1.7   -0.8    9.0
C    -1.7    8.2   -3.8
I    -8.6   -3.2   -0.5
H     8.1   -1.1   -4.3
I     4.7    5.3    5.9
H    -0.4   -0.9   -9.2
P     7.3   -5.7   -0.0
H     8.5   -0.8    3.6
H     2.3    3.6    8.2
H    -2.4   -1.6    8.8
H     7.9   -1.9    4.7
H    -0.8   -9.1   -2.1
H    -0.8    9.1   -2.1
C    -6.7   -5.7   -3.4
I     6.7   -5.9   -3.3
N    -6.5   -5.7    3.9
I    -4.3    5.2   -6.9
H     5.9    6.9    3.2
N     2.4    3.2   -8.8
I     9.1   -3.2   -0.5
H     2.9    4.0   -8.4
I     4.6    5.2   -6.9
H    -7.7   -5.3   -3.0
H    -6.7   -5.6   -4.5
H    -7.4   -5.3    3.6
I     9.7    1.3   -0.5
H    -6.3   -7.1    2.4
I     5.3   -8.3    0.2
H    -1.8    8.7    4.4
H    -9.7    0.0   -2.1
I     2.2   -1.1   -9.6
H    -9.2   -0.8    3.6
H     1.4    3.6   -9.1
H    -6.6   -6.7   -3.1
I     0.8   -7.8   -6.2
P    -6.1    7.9   -0.0
H    -2.4   -9.5   -1.8
I    -5.6    7.7   -3.3
I     7.8   -5.6    3.1
I     3.4   -1.3    9.5
I     0.9   -7.7    6.6
P     7.2    3.4    6.3
P     7.1    3.3   -6.4
H     2.3   -5.5    8.2
H     7.5    6.5    2.4
H    -2.2   -9.0   -4.2
N    -1.5   -9.8   -2.3
H     2.3    2.5    9.6
H     2.9   -5.1   -8.4
C     2.2    3.5    9.3
I    -8.1    1.3   -6.2
H    -3.0   -2.3   -9.5
H    -2.2    9.1   -4.2
I    -1.1    3.4   -9.6
I    -2.1    3.3    9.5
H   -10.0   -1.6   -1.9
C    -2.1   -1.9   -9.9
C     6.8    7.3    2.8
H    -6.7   -6.4    4.7
I    -8.6    5.9   -0.5
I    -8.0    1.4    6.6
I     0.8   10.4   -0.5
I    -3.6    9.8    0.2
P     2.8    7.8   -6.4
H    -0.4   -9.9    3.6
P     2.8    7.9    6.3
H     6.4    7.4   -3.9
N    -1.4   -0.6   10.4
H     1.3    3.9    9.7
H    -2.3  -10.1    2.1
H     6.6    8.0    2.1
H     4.0    2.2   -9.6
H    -1.8   -9.5    4.4
P     2.8  -10.3   -0.0
H     2.1   -6.6   -8.1
H    -9.7   -1.1   -4.3
N   -10.4   -0.7   -2.3
H    -0.7    0.1   10.6
I    -3.5   -8.3    5.9
C     3.1    2.6   -9.9
H     1.4   -5.5   -9.1
C    -1.8  -10.0   -3.8
I     2.2  -10.1    3.1
H    -1.1    7.1   -8.1
H    -1.5   -2.7  -10.4
H     2.5    1.8  -10.4
N     2.3   -5.8   -8.8
H    -6.8    2.5   -8.1
I    -6.6    8.1    3.1
H    -1.1  -10.7   -1.9
I     9.2    5.9   -0.5
H     3.3   -3.8    9.7
H   -10.3   -2.6    2.4
H     7.0   -0.5   -8.4
H    -4.8    2.2   -9.6
N   -10.1   -1.2    3.9
H     6.8    0.2    8.6
H     7.8    7.5   -1.9
H     6.5    8.6   -1.8
H    -2.3   -1.2  -10.7
H    -6.0    4.0   -8.4
I   -10.0    3.5    3.1
H    -1.1   -1.5   10.9
P   -10.5    3.4   -0.0
I    -5.5   -1.3    9.5
N    -1.3  -10.3    3.9
H     1.3   -5.1    9.7
H     6.5   -1.6    8.8
H    -0.8  -10.2   -4.3
C     2.2   -5.6    9.3
H    -9.9   -1.9    4.7
P     7.2   -5.7    6.3
I    -8.7   -3.2   -6.2
H    -6.6    3.6    8.2
I    -8.1   -7.7   -0.5
I     5.3    9.8    0.2
H    -2.3   -0.3   11.0
P     7.1   -5.8   -6.4
H    10.1    3.8   -3.0
H     4.3    3.9    9.6
I    -1.1   -5.7   -9.6
I    -2.2   -5.8    9.5
I    -8.6   -3.1    6.6
C   -10.6   -0.9   -3.8
N     3.4    4.3    9.9
H    -4.6    3.9    9.6
H   -11.2   -0.5   -1.8
N     7.4    8.3   -2.3
H   -11.2   -1.1    2.1
H     5.9   -2.3   -9.5
H     7.8   -2.0   -8.1
I     9.1   -3.2   -6.2
C   -10.9   -1.8    2.8
N    -6.5    3.2   -8.8
I    -3.6   -8.4   -6.9
C    -2.1  -10.9    2.8
I     3.3  -10.5   -3.3
I     5.3   -8.3    5.9
H    -6.0   -5.1   -8.4
H     3.3    5.3    9.7
C     7.1    8.2   -3.8
C     7.2   -0.8    9.0
N     3.3   -4.8    9.9
H     2.6   11.0    2.4
I     9.7    1.3   -6.2
H   -10.7   -0.4    4.4
I    11.1   -1.0    3.1
H    10.4    3.7    3.6
H     7.9    7.2    4.7
N     7.6    7.9    3.9
I     9.1   -3.1    6.6
H     6.5   -9.5   -1.8
H     3.3    3.4  -10.7
N     7.6   -1.3   -8.8
P    11.7   -1.2   -0.0
H    -2.5  -10.8   -3.9
H    -0.7    8.1    8.5
H     4.3   -5.2    9.6
H    -5.6   -3.8    9.7
H    10.1   -5.3   -3.0
I    -6.7   -1.1   -9.6
H   -11.0    0.1   -4.2
C    -5.8    2.6   -9.9
H     8.1   -1.0    8.5
H    11.1    2.3   -3.1
P    -6.0    7.9    6.3
P    -6.1    7.8   -6.4
H    -2.4    7.5    8.8
H    11.4    1.9    2.4
N    -1.3    7.8   -8.8
I     9.8    1.4    6.6
I   -10.0   -5.6    3.1
H    -4.6   -5.2    9.6
H    -6.6   -5.5    8.2
H     2.3   -6.6    9.6
H    -6.6    2.5    9.6
H    -1.0  -10.9    4.7
P    -6.1  -10.3   -0.0
P   -10.5   -5.7   -0.0
I   -11.1    3.2   -3.3
H     6.7   -9.0   -4.2
C    -6.7    3.5    9.3
H     7.1    8.7    4.4
I    -3.5    9.9    5.9
H    -1.4  -11.7    2.4
H    -3.0    6.7   -9.5
C    11.0    3.4   -3.4
H     2.3   11.4   -3.1
I     5.3   -8.4   -6.9
H     6.7    9.1   -4.2
I     6.7    3.3    9.5
I     0.8   10.4   -6.2
H    -1.9    8.5   -8.4
H   -11.3   -1.7   -3.9
H     8.1    8.0   -4.3
H    -3.0  -11.3    3.2
N    -5.5    4.3    9.9
I    -8.7    5.9   -6.2
C     6.8   -1.9   -9.9
H    10.4   -5.3    3.6
H     3.3    4.2   11.0
H    -1.5    6.3  -10.4
C     3.1   -6.5   -9.9
I     0.3  -12.3   -0.5
H     6.6  -10.1    2.1
H    11.1    2.6    4.7
H    -0.4    8.2   -9.2
I    -5.6  -10.5   -3.3
H     8.1   -9.1   -2.1
H    -7.4    3.6   -9.1
H    -6.4    1.8  -10.4
H    -5.6    5.3    9.7
P     2.8  -10.2    6.3
N    -5.5   -4.8    9.9
I     0.9    1.5   12.2
C    -1.7    8.3    9.0
H     8.1    9.1   -2.1
I    -8.6    6.0    6.6
H   -10.3    6.5    2.4
C    -2.1    7.1   -9.9
H     8.5    8.3    3.6
I     0.9   10.5    6.6
N    11.3    3.4    3.9
H    -6.8   -6.6   -8.1
I     9.7   -7.7   -0.5
I     9.1    5.9   -6.2
N    -6.5   -5.8   -8.8
H     3.3   -4.8   11.0
H     4.0   -6.9   -9.6
I    -3.6    9.8   -6.9
I   -12.4    0.8    0.2
P     2.8  -10.3   -6.4
H    11.1    3.5   -4.5
H   -11.8   -2.2    3.2
N     7.4   -9.8   -2.3
I    -6.7  -10.1    3.1
H     8.5   -0.9   -9.2
H    -5.6    3.4  -10.7
H     4.1   11.4    3.2
P    -1.6   12.4   -0.0
H     3.3   -5.7  -10.7
C     3.2   11.8    2.8
H    -2.1   -8.9    8.6
H     6.6   -1.2  -10.7
