         400
 sphere cut out from bulk 
P    -0.2   -0.0   -0.1
I     2.2   -0.5    2.0
I     1.6   -0.5   -2.6
I     0.3    3.1   -0.0
I    -1.0   -3.1    0.2
I    -2.8    0.4   -2.0
I    -2.2    0.5    2.6
H    -0.1    2.3   -3.2
H     3.3    2.3   -0.5
H    -0.8   -1.6    3.7
H    -0.6    2.4    3.5
H    -3.6    2.3    1.0
H     2.9   -3.2   -1.1
H     3.8   -2.3    1.0
H    -3.5   -3.2    0.8
H     1.0   -2.3   -4.1
C    -0.5    3.2   -3.7
H     1.0   -3.3    3.6
H    -1.6    3.2   -3.6
H     0.8    3.2    3.8
H    -4.4   -2.2   -1.3
H    -0.6   -4.0    3.1
N    -0.7   -2.3    4.5
C     4.0    3.2   -0.4
N    -0.2    3.2    4.0
H     4.4   -2.2   -1.3
C     4.0   -3.2   -0.9
H    -0.1    4.1   -3.2
H     3.9    3.1    1.7
N    -4.2    3.1    0.9
H     3.3    4.1   -0.5
C     0.0   -3.6    4.0
N     4.2   -3.2    0.6
H    -4.1    3.2   -1.2
H    -0.6    4.0    3.5
H    -3.6    4.0    1.0
H    -1.3   -3.2   -4.3
H    -0.1   -1.9    5.2
N    -4.6   -3.2    0.6
H    -5.0   -2.3    1.0
H     3.8   -4.0    1.0
N     4.6    3.1    0.9
H    -1.6   -2.6    4.8
N     0.8   -3.2   -4.7
H     5.2    2.3    1.0
H     0.9   -4.0   -4.1
C    -4.8   -3.2   -0.9
H     4.7    3.2   -1.2
C    -4.9    3.2   -0.4
H    -5.5    2.3   -0.5
H    -4.9    3.1    1.7
N    -0.2    3.2   -5.1
H    -4.4   -4.0   -1.3
P     4.0   -0.0    4.6
H    -0.6    2.3   -5.6
C    -0.6   -3.2   -5.2
H     4.5   -4.0   -1.3
P     4.2    0.1   -4.5
H     5.3   -3.2    0.8
H     0.9    3.2   -5.3
P    -0.2   -6.3   -0.1
H    -0.8   -2.3   -5.8
H    -0.1    2.3    5.9
C    -0.6    3.2    5.4
I     3.4    3.1    4.3
P    -0.3    6.3   -0.1
I     6.0    0.4   -2.0
H     0.1   -4.3    4.8
P    -4.6    0.1   -4.5
H    -5.0   -4.0    1.0
H     1.4   -3.2   -5.5
I     2.3   -5.8    2.0
H    -1.6    3.2    5.5
I     1.7   -5.8   -2.6
I     3.4    3.2   -4.7
P    -4.8   -0.0    4.6
H     5.2    4.0    1.0
I    -2.2    5.8    2.6
I     1.5   -0.4    6.5
H    -5.9   -3.2   -1.1
I    -2.8    5.9   -2.0
H    -5.5    4.1   -0.5
I    -2.1    0.5   -6.5
I    -6.6   -0.5    2.0
H    -0.6    4.0   -5.6
I    -4.1   -3.1    4.7
I    -4.2   -3.1   -4.6
H    -0.8   -4.1   -5.8
I     6.6    0.5    2.6
H    -0.1    4.1    5.9
I     4.6   -3.1   -4.6
I     4.7   -3.1    4.7
I     2.2    6.8    2.0
I     1.6    6.8   -2.6
I    -2.7   -6.7   -2.0
I     2.3   -0.5   -7.2
I    -2.2   -6.8    2.6
I    -5.4    3.1    4.3
I    -7.2   -0.5   -2.6
I    -2.9    0.5    7.1
I    -5.4    3.2   -4.7
I     7.9   -3.1    0.2
P     8.6   -0.0   -0.1
H     7.2    3.2   -3.6
I     6.1    5.9   -2.0
P     4.2    6.3   -4.5
P     4.1    6.3    4.6
P     4.1   -6.3    4.6
P     4.2   -6.3   -4.5
I     1.6   -5.9    6.6
I    -6.5   -5.8    2.0
H     8.0   -1.6    3.7
P    -4.6    6.3   -4.5
I    -2.1    5.8   -6.6
H     7.2   -2.6    4.8
P    -9.1   -0.0   -0.1
P    -4.6   -6.3   -4.5
H     4.0    2.3   -7.8
P    -4.7   -6.3    4.6
H     4.1   -2.3    7.8
I    -8.5    3.1   -0.0
H    -0.0   -8.5   -3.2
I     6.6    5.8    2.6
P    -4.7    6.3    4.6
P    -0.3   -0.0   -9.1
H     3.4   -8.5   -0.5
P    -0.3   -0.0    9.2
H    -7.9   -2.3   -4.1
H    -7.8   -3.3    3.6
H    -0.6    8.6    3.1
H     8.2    2.4    3.5
H     2.7   -3.2    8.2
H     7.5   -3.2   -4.3
H    -0.6   -8.6    3.5
H     3.9   -2.3   -8.1
I     5.9    0.5    7.1
I     6.1   -6.7   -2.0
H    -4.7   -2.3    7.8
I     6.7    0.5   -6.5
H    -3.5   -8.6    1.0
H    -3.3    3.2   -8.2
H     3.8    8.6    1.0
H    -8.0    3.2    3.8
H    -4.8    2.3   -7.8
I     0.3   -9.5   -0.0
I     2.3   -5.8   -7.2
H     4.3    2.3    8.1
H     2.9    3.2    8.5
I    -1.0    9.5    0.2
I     1.6    6.7    6.6
H    -4.5    2.3    8.1
H     0.9    8.6   -4.1
I    -7.1   -5.8   -2.6
H     8.7    2.3   -3.2
H     7.2    3.2    5.5
N     8.2   -2.3    4.5
H     0.1    8.3    4.8
I     0.4    3.1    9.1
I    -2.9    5.7    7.1
I     9.1    3.1   -0.0
I    -1.0   -3.1   -9.0
C     3.7   -3.2    8.3
C     8.3    3.2   -3.7
I    -6.6    6.8    2.0
H     4.0    4.1   -7.8
H     8.2   -4.0    3.1
I    -2.1   -6.8   -6.6
H    -4.4    8.6   -1.3
H     4.4    8.6   -1.3
I    -6.5   -0.5   -7.2
H     4.1   -4.1    7.8
H    -7.4   -3.2   -5.5
H    -8.9    2.3   -3.2
H    -7.9   -4.0   -4.1
H    -3.5   -3.2   -8.5
I     0.4    3.1   -9.2
H    -4.9   -2.3   -8.1
H     8.2    4.0    3.5
I    -7.3   -0.4    6.5
H     3.9   -4.0   -8.1
I    -1.1   -3.1    9.3
I     6.6   -6.8    2.6
N    -8.1   -3.2   -4.7
C    -0.0    9.0    4.0
C    -4.4    3.2   -8.3
C     4.4    3.2   -8.3
H     2.9    9.4   -1.1
N     3.9    3.2    8.6
H    -4.7   -4.1    7.8
N     8.6    3.2    4.0
H    -5.0    8.6    1.0
H     4.3    4.0    8.1
H    -7.9    3.2   -5.3
H    -4.8    4.1   -7.8
H     1.0    9.3    3.6
H    -4.5    4.0    8.1
H    -5.4   -8.5   -0.5
N     4.3   -3.2   -8.6
H    -3.6    9.4    0.8
C    -0.5   -9.4   -3.7
I     2.2    6.8   -7.2
H     5.3   -8.6    1.0
H     8.7    4.1   -3.2
H     8.0   -2.3   -5.8
H     0.9   -9.4    3.8
I    -7.2    6.8   -2.6
C     8.2   -3.2   -5.2
N    -0.2   -9.4    4.0
C    -5.1   -3.2    8.3
H    -1.6   -9.4   -3.6
N    -4.6   -3.2   -8.6
C     4.0   -9.4   -0.4
H     8.3    2.3   -5.6
H    -0.5   -8.6   -5.6
C    -8.8   -3.6    4.0
I    -9.8   -3.1    0.2
C     4.0    9.4   -0.9
H    -4.9   -4.0   -8.1
I    -2.8   -6.8    7.1
H    -4.1   -9.4   -1.2
H    -8.9    4.1   -3.2
C     8.8   -3.6    4.0
H    -9.4    2.4    3.5
H     8.7   -1.9    5.2
H    -0.1   -8.5    5.9
H    -0.8    8.5   -5.8
N     4.2    9.4    0.6
N    -4.9    3.2    8.6
N    -9.0    3.2    4.0
N    -4.2   -9.5    0.9
H     5.5    3.2   -8.2
C     8.3    3.2    5.4
H     4.0   -9.5    1.7
H    -9.6   -1.6    3.7
H    -1.3    9.4   -4.3
N    -4.6    9.4    0.6
C    -9.3    3.2   -3.7
H    -8.9   -1.9    5.2
H     5.3   -3.2   -8.5
N     0.7    9.4   -4.7
N     8.7    3.2   -5.1
C    -4.8   -9.4   -0.4
N     4.7   -9.5    0.9
H     4.8   -9.4   -1.2
P     8.6   -6.3   -0.1
P     8.5    6.3   -0.1
H    -9.4   -4.0    3.1
C    -4.9    9.4   -0.9
H     8.0   -4.1   -5.8
H     3.0    3.2   -9.8
N    -0.1   -9.4   -5.1
H     8.7    2.3    5.9
N    -9.5   -2.3    4.5
H     8.3    4.0   -5.6
H    -4.8   -9.5    1.7
H    -6.2   -3.2    8.2
C    -0.7    9.4   -5.2
I    10.5   -0.5   -2.6
H    -8.7   -4.3    4.8
H    -5.9    3.2    8.5
H     5.2    9.4    0.8
N    -9.0    3.2   -5.1
H    -0.0  -10.3   -3.2
H     0.9   -9.4   -5.3
H    -0.6  -10.2    3.5
H     3.4  -10.3   -0.5
H    -9.4    4.0    3.5
H     9.8   -2.3   -4.1
H     9.6    3.2    3.8
H    -3.6   -3.2    9.8
C    -0.5   -9.4    5.4
H     2.7   -3.2  -10.0
I     5.9    5.7    7.1
H    -8.9    2.3    5.9
H    -3.6  -10.3    1.0
I     3.4   -9.5    4.3
H     9.8   -3.3    3.6
H     1.4    9.4   -5.5
H     3.8   10.3    1.0
N     4.0    3.2   -9.7
H     8.9   -4.3    4.8
P    -9.0   -6.3   -0.1
I     6.7    5.8   -6.6
N     4.2   -3.2    9.7
H    -1.6   -9.4    5.5
P    -0.3   -6.3    9.1
P    -9.1    6.3   -0.1
P    -0.4    6.3    9.1
H    -3.4    3.2   10.1
I     3.5   -9.4   -4.7
H     0.9   10.3   -4.1
H     3.8   -2.3   10.2
P    -0.2   -6.3   -9.2
N     9.6   -3.2   -4.7
P    -0.3    6.3   -9.2
H    -9.4    2.3   -5.6
C     3.8   -3.2  -10.0
N    -4.6   -3.2    9.7
H    -5.9    9.4   -1.1
N    -0.7   10.3    4.5
H    -1.6   10.0    4.8
I    11.0   -0.5    2.0
C    -9.4   -3.2   -5.2
H     8.7    4.1    5.9
I    -6.5   -5.8   -7.2
N    -4.8    3.2   -9.7
C    -9.4    3.2    5.4
I   -11.0    0.5    2.6
H     9.8   -4.0   -4.1
I    -4.2    9.5   -4.6
H    -4.4   10.3   -1.3
I    -4.1    9.5    4.7
H     4.4   10.3   -1.3
H    -4.4    2.3  -10.2
I     2.2   -0.5   11.1
H     4.4    2.3  -10.2
C     4.3    3.2   10.0
I    -7.2   -5.9    6.6
H     3.9    2.3   10.5
C    -4.5    3.2   10.0
H   -10.1   -3.2   -4.3
H    -9.6   -2.3   -5.8
H   -10.4    3.2   -3.6
I     4.6    9.5   -4.6
H    -9.0    4.1    5.9
H     9.7    3.2   -5.3
H    -5.0   10.3    1.0
H     5.2   -3.2    9.8
I    -2.8    0.5  -11.1
I     4.7    9.5    4.7
H     4.2   -2.3  -10.5
I     6.0   -6.8    7.1
H    -5.0   -2.3   10.2
H     3.8   -4.0   10.2
I     6.7   -6.8   -6.6
H    -0.8   11.0    3.7
H     5.3  -10.3    1.0
C    -5.0   -3.2  -10.0
H    -9.4    4.0   -5.6
H    -5.5  -10.3   -0.5
H    -4.6   -2.3  -10.5
H    -0.5  -10.3   -5.6
I    -5.4   -9.5    4.3
I   -11.6    0.4   -2.0
H   -10.4   -2.6    4.8
H    -4.9    2.3   10.5
H    -4.4    4.0  -10.2
H     4.4    4.0  -10.2
I    -5.3   -9.4   -4.7
H    -5.8    3.2   -9.8
I    -7.2    6.7    6.6
H    -0.1  -10.3    5.9
H     5.4    3.2   10.1
H    -0.8   10.3   -5.8
I     1.6   -0.4  -11.8
I    -6.6    6.8   -7.2
H     3.9    4.1   10.5
H    -0.1   10.7    5.2
H    -9.6   -4.1   -5.8
I    -2.2    0.5   11.7
H     4.2   -4.1  -10.5
H    -5.0   -4.0   10.2
H    10.2   -3.2   -5.5
H    -4.6   -4.1  -10.5
H    -6.1   -3.2  -10.0
H    11.7   -3.2   -1.1
I    10.3   -0.4    6.5
H   -10.5    3.2    5.5
H    -4.9    4.1   10.5
H     4.0   -8.5   -7.8
H     4.1    8.5    7.8
I     7.8    9.5    0.2
I    10.5   -5.8   -2.6
H     8.2    8.6    3.1
I     7.8   -3.1   -9.0
H    12.1    2.3   -0.5
H    -7.9    8.6   -4.1
H     8.2   -8.6    3.5
H     3.8    8.6   -8.1
H     7.3   -9.4   -3.6
I     2.2   12.1    2.0
P     8.5   -0.0    9.2
I     7.8   -3.1    9.3
H    -4.7    8.5    7.8
I     1.6   12.1   -2.6
P     8.6   -0.0   -9.1
H    -4.8   -8.5   -7.8
P    -0.3   12.6   -0.1
I    -2.1  -12.1    2.6
H     4.4   -8.6    8.1
H    -4.4   -8.6    8.1
I    -2.7  -12.2   -2.0
H    -0.0    2.3  -12.4
P    -0.2  -12.6   -0.1
H     8.8   -8.5   -3.2
H   -12.4    2.3    1.0
I     6.0    0.5  -11.1
I    11.1   -5.8    2.0
H    -7.8    9.3    3.6
I    10.5    6.8   -2.6
