         400
 sphere cut out from bulk 
P     0.3    0.1   -0.4
I    -1.6    0.6    2.2
I    -0.3   -3.1   -0.4
I     2.8   -0.4    1.6
I    -2.3    0.5   -2.4
I     1.0    3.2   -0.5
H     0.3   -2.2    2.8
I     2.1   -0.3   -3.0
H     0.0    2.4    3.1
H    -2.8    3.2    0.5
H     0.5    2.4   -3.6
C     0.7   -3.1    3.2
H    -2.8   -3.6   -0.2
H     0.5   -1.8   -4.3
H    -3.8    2.3   -1.5
H     4.3   -2.0   -0.2
H     3.4   -3.0   -1.4
H     1.7   -3.1    3.2
N     0.4    3.2    3.6
H     3.5    3.2   -1.1
H     0.3   -4.0    2.8
H    -3.9   -2.3   -1.9
H    -4.3    2.2    0.9
H    -4.5   -2.0   -0.2
H     1.5    3.2    3.5
C    -3.9    3.2    0.5
H     0.0    4.1    3.1
H     4.5    2.2    0.9
C     0.0    3.2   -4.1
C     4.4   -2.7   -1.0
H    -1.1    3.2   -4.0
C    -4.5   -2.7   -1.0
N    -4.2    3.2   -1.0
N    -3.7   -3.9   -0.5
H    -1.0   -2.6   -4.7
N    -0.0   -2.3   -5.0
H     0.4    4.2   -3.6
N     0.2   -3.1    4.7
N     4.6    3.2   -1.0
H     0.6   -2.3    5.1
H     5.0    2.3   -1.5
H    -0.8   -3.1    4.7
H    -3.8    4.0   -1.5
H     4.9   -2.3   -1.9
P    -4.1    0.1    4.1
C     4.9    3.2    0.5
C    -0.0    3.2    5.0
H     0.4    2.3    5.4
H    -4.3    4.0    0.9
H    -3.6   -4.6   -1.3
H    -0.2   -1.6   -5.8
H    -1.1    3.2    5.0
H    -4.2   -4.3    0.3
H     4.5    4.0    0.9
I    -6.0   -0.4    1.6
H    -5.3    3.2   -1.1
P     0.4   -6.2   -0.4
I    -3.4   -3.1    4.3
P     4.7    0.1    4.1
H     4.6   -4.3    0.3
H    -5.4   -3.0   -1.4
P     0.3    6.4   -0.4
N     0.4    3.2   -5.5
H     0.8   -4.2   -4.8
N     5.1   -3.9   -0.5
H     0.0    2.4   -6.0
I    -1.6    5.9    2.2
P    -4.1    0.1   -5.0
H     0.6   -3.9    5.1
H     5.0    4.0   -1.5
I     2.2   -0.5    6.1
I     4.0    3.2    4.1
C     0.7   -3.5   -5.6
H     1.5    3.2   -5.6
I     2.9   -5.8    1.6
I    -3.5   -3.1   -4.8
I    -2.3    5.9   -2.3
H     6.0    3.2    0.5
H     0.4    4.1    5.5
P     4.7    0.1   -5.0
H     1.7   -3.2   -5.9
I     2.3   -5.9   -3.0
I     6.6    0.5   -2.4
H     6.0   -3.6   -0.2
I    -1.5    0.5   -6.9
H     5.2   -4.6   -1.3
I    -4.8    3.2    4.1
I    -2.2    0.4    6.8
I    -1.5   -6.7    2.2
H     0.0    4.1   -6.0
I     4.0    3.2   -5.2
I    -6.7   -0.3   -3.0
I    -2.2   -6.7   -2.3
H     0.1   -3.9   -6.4
I     2.8    6.8    1.6
I     7.2    0.6    2.2
I     5.4   -3.1    4.3
I     2.2    6.7   -3.0
I    -4.8    3.2   -5.2
I     5.4   -3.1   -4.8
I     2.9   -0.4   -7.6
H    -7.1   -3.1    3.2
I    -5.9   -5.8    1.6
I    -7.8    3.2   -0.5
P    -4.0   -6.2    4.1
P    -8.5    0.1   -0.4
H     3.4   -2.2    7.5
P    -4.1    6.4    4.1
H    -3.1   -3.1    7.5
P     0.3    0.1    8.7
I     2.2   -5.7    6.2
H    -7.4    3.2    3.5
H    -3.7    8.0   -1.3
P     4.8   -6.2    4.1
P     4.7    6.4    4.1
P    -4.0   -6.2   -5.0
I    -6.6   -0.5    6.1
H     0.1    8.6    2.8
I     6.5    5.9   -2.3
I     8.5   -3.1   -0.4
P    -4.1    6.4   -5.0
H     0.1   -8.6    3.1
P     9.1    0.1   -0.4
I    -1.6    5.9   -6.9
I    -6.0    6.8    1.6
H     0.6   -8.5   -3.6
I     0.9    3.2    8.6
H     3.4   -3.9    7.6
I    -6.5   -5.9   -3.0
H    -8.6   -2.2    2.8
I    -2.3    5.9    6.8
C    -8.2   -3.1    3.2
H     7.8    3.2   -4.0
P     4.8   -6.2   -5.0
H    -4.4    8.3    0.3
P     4.7    6.4   -5.0
H     4.5    8.3    0.3
H    -8.4    2.4   -3.6
I    -0.1   -3.1    8.9
N     3.7   -3.0    8.1
H    -2.9    9.0   -0.2
I     1.1   -9.4   -0.5
I     6.6    0.4    6.8
I     2.1    6.9    6.2
H    -8.3   -1.8   -4.3
H    -3.7   -8.6   -1.5
H     7.9   -2.6   -4.7
I    -0.4    9.5   -0.4
H    -5.4   -2.2    7.5
N    -3.8    8.7   -0.5
H    -2.8    3.1   -8.6
H    -3.7    2.0    8.6
H    -4.4    2.4   -8.1
H     4.4    2.4   -8.1
H     5.1    8.0   -1.3
P     0.3    0.1   -9.6
I     7.2    5.9    2.2
H    -4.2   -8.6    0.9
H    -8.8    2.4    3.1
I    -9.1   -3.1   -0.4
I    -5.9   -0.4   -7.6
H     8.8    2.4    3.1
N    -8.4    3.2    3.6
C    -3.7   -3.0    8.4
H     0.7    8.4   -4.8
H     7.7    3.2    5.0
I     6.6   -6.7   -2.3
H     9.1   -2.2    2.8
H     3.4    3.7    8.4
I    -1.4   -6.7   -6.9
I    -2.2   -6.7    6.8
H     8.0   -3.1    4.7
H     4.6   -8.6    0.9
H    -7.1   -3.2   -5.9
H    -3.4   -2.1    8.9
H    -7.3    3.2   -5.6
H    -8.6   -4.0    2.8
H    -2.7   -9.5    0.5
I    -0.1   -3.1   -9.4
H     5.7   -3.1    7.5
I    -6.6    6.7   -3.0
H    -3.9    4.4    8.0
H    -8.2   -2.3    5.1
H     3.2   -3.0    9.0
H    -8.4    4.2   -3.6
N     5.0    8.7   -0.5
N     0.5   -9.4    3.6
C     0.5    9.5    3.2
N    -5.1   -3.0    8.1
I     7.4    0.5   -6.9
H     0.5    8.7    5.1
I     3.0   -5.9   -7.7
C    -3.8    2.8   -8.9
H     5.1   -8.6   -1.5
H    -5.4   -3.9    7.6
H    -8.8    4.1    3.1
H    -3.4   -2.0   -9.4
H     1.6   -9.4    3.5
H     0.5   -8.5    5.5
H     5.1    2.0    8.6
H     1.6    9.5    3.2
H     3.6   -9.5   -1.1
C    -3.8   -9.5    0.5
I     7.4   -6.7    2.2
H     3.3    9.6   -1.4
H     8.8    4.1    3.1
C    -8.8    3.2   -4.1
I     0.9    3.2   -9.7
H    -8.0   -4.2   -4.8
H     9.3    2.4   -3.6
C     0.1   -9.4   -4.1
H     3.2   -2.9   -9.3
H    -0.9   -9.4   -4.0
N    -8.6   -3.1    4.7
C     8.9    3.2   -4.1
H     9.1   -4.0    2.8
H    -8.5    2.3    5.4
I     9.8    3.2   -0.5
C     5.1   -3.0    8.4
H     4.9    4.4    8.0
N    -4.1   -9.5   -1.0
N     8.8   -2.3   -5.0
N     9.2    3.2    3.6
N    -8.8   -2.3   -5.0
C    -8.1   -3.5   -5.6
H     9.3   -1.8   -4.3
H    -3.4   -3.9    9.1
H     0.1   -8.5   -6.0
P    -8.4   -6.2   -0.4
C    -3.8    2.8    9.3
H    -8.2   -3.9    5.1
C     9.5   -3.1    3.2
H     8.6   -1.6   -5.8
N     4.3    4.0    8.7
H    -3.4   -3.8   -9.2
N    -8.4    3.2   -5.5
C     8.8    3.2    5.0
H    -2.8    3.1    9.7
I     2.9    6.7   -7.7
H    -3.7    2.0   -9.7
N     0.1    9.5    4.7
N    -4.5    4.0    8.7
N     4.7   -9.5   -1.0
P    -8.5    6.4   -0.4
N     9.0   -3.1    4.7
H     5.4   -2.1    8.9
I   -10.4    0.6    2.2
H    -5.4    3.7    8.4
C    -8.8    3.2    5.0
C     5.0    2.8   -8.9
H    -0.9    9.5    4.7
C     0.1   -9.4    5.0
H     0.1  -10.2    3.1
I    -6.6   -5.7    6.2
C     0.6    9.1   -5.6
H    -1.0   -9.4    5.0
C     5.0   -9.5    0.5
P     0.3   -6.3    8.7
H     0.1   10.4    2.8
H     9.3    4.2   -3.6
H     5.9    9.0   -0.2
P     0.2    6.3    8.7
H    -9.0   -1.6   -5.8
H     0.0    8.7   -6.4
C     4.2    9.9   -1.0
H    -5.2   -9.5   -1.1
H     4.2    4.7   -8.8
H    -8.5    4.1    5.5
H     0.6  -10.3   -3.6
H    -8.8    2.4   -6.0
H     9.2    2.3    5.4
N     0.5   -9.4   -5.5
C    -3.6   -3.0   -9.9
H     6.0    3.1   -8.6
C     5.0    2.8    9.3
H     9.4   -2.3    5.1
C    -4.6    9.9   -1.0
H     8.8    2.4   -6.0
I    -3.5    9.5    4.3
H     5.4   -2.0   -9.4
I     4.1   -9.4    4.1
H    -4.6    4.7   -8.8
H     1.6   -9.4   -5.6
H    -3.7  -10.3   -1.5
H    -5.7   -3.0    9.0
I     2.8   -0.4   10.7
H    -1.1   10.0   -4.7
I     6.5    5.9    6.8
H     3.4    3.7   -9.9
H    -9.8   -2.6   -4.7
H    -9.9    3.2   -4.0
P     9.1    6.4   -0.4
H    -5.6    9.6   -1.4
H    -9.6   -3.1    4.7
P     9.3   -6.2   -0.4
H     5.1    2.0   -9.7
H    -4.2  -10.4    0.9
N     3.7   -3.0  -10.1
H    -4.0   10.3   -1.9
N     4.4    4.0   -9.5
H    -5.6   -2.9   -9.3
H     5.4   -3.9    9.1
N     9.2    3.2   -5.5
I    -3.6    9.5   -4.8
N    -4.5    4.0   -9.5
H     1.6    9.5   -5.9
I    -4.7   -9.4    4.1
H     6.1   -9.5    0.5
I    -5.8   -5.9   -7.7
H     4.4    2.4   10.1
H    10.3    3.2    3.5
H     4.1    4.7    9.4
H    -4.4    2.4   10.1
I   -11.1    0.5   -2.4
H     5.4   -3.8   -9.2
I    11.0   -0.3   -3.0
H     4.6  -10.4    0.9
H    -8.8    4.1   -6.0
P     0.3   -6.3   -9.5
I    -6.7    6.9    6.2
H     9.4   -3.9    5.1
H     4.2   10.6   -0.2
H     9.2    4.1    5.5
H     8.8    4.1   -6.0
H    10.6   -3.1    3.2
H    -8.7   -3.9   -6.4
P     0.2    6.4   -9.5
N    -0.1   10.3   -5.0
I    -1.5    0.4   11.4
I     4.2   -9.4   -5.2
H     3.5   -2.2  -10.8
C     5.2   -3.0   -9.9
H     4.8   10.3   -1.9
H    -4.7    4.7    9.4
H     9.6   -4.2   -4.8
H    -9.9    3.2    5.0
H     0.5   10.4    5.1
H     5.1  -10.3   -1.5
C     9.5   -3.5   -5.6
H     0.4   10.8   -4.3
I     6.6   -6.7    6.8
H    -4.6   10.6   -0.2
I     7.3    5.9   -6.9
H    -3.1   -3.1  -10.8
H     8.9   -3.9   -6.4
H     0.5  -10.3    5.4
I    -4.7   -9.4   -5.2
I     5.3    9.5    4.3
I    11.6   -0.4    1.6
I    -2.1    0.4  -11.5
N    -5.1   -3.0  -10.1
I    -5.9    6.7   -7.7
H     6.0    3.1    9.7
H     3.5   -3.9  -10.6
H     0.1  -10.2   -6.0
H    -3.9    4.4  -10.3
H    -5.4    3.7   -9.9
I     5.3    9.5   -4.8
H   -11.6    3.2    0.5
H     3.3    8.7    7.6
H    -3.8   -8.2    8.0
H   -11.6   -3.6   -0.2
I   -10.4    5.9    2.2
I     7.4   -6.7   -6.9
H    10.3    3.2   -5.6
I    -8.0    3.2    8.6
P    -8.5    0.1    8.7
I    -7.7   -9.4   -0.5
H    -5.4   -2.2  -10.8
H     4.9    4.4  -10.3
I    -6.0   -0.4   10.7
I    -1.5  -12.0    2.2
I     2.2   -0.5  -12.1
H    -7.2    9.5    3.2
H    -8.3   -8.5   -3.6
H    -7.2   -9.4    3.5
I   -10.3    0.5   -6.9
H    -0.3   11.0   -5.8
H    10.5   -3.2   -5.9
I   -10.3   -6.7    2.2
I    -2.1  -12.1   -2.4
H    -0.0    2.4   12.3
H     5.0   -8.2    8.0
I     2.9   -5.9   10.6
H     0.1   -3.9   11.9
H    -5.4   -3.9  -10.6
H    -8.7    8.6    2.8
H    -3.2    9.5    7.5
H    -8.7   -8.6    3.1
P     0.4  -12.6   -0.4
H     4.3   -7.9   -8.8
H     5.7   -3.1  -10.8
H    -8.1    8.4   -4.8
P     9.1    0.1    8.7
H    -0.2   -1.6   12.5
H    12.2   -3.0   -1.4
I    11.0   -0.5    6.1
I     2.7   12.3    1.6
P     0.2   12.7   -0.4
H    -4.5   -7.9   -8.8
