         400
 sphere cut out from bulk 
H    -0.6    1.8   -1.0
H    -0.9    2.0    0.7
I     0.6    0.2   -2.5
N    -1.2    2.4   -0.3
I    -0.6    0.8    2.8
H    -2.2    2.1   -0.4
P     3.4   -1.3   -1.5
C    -0.9    3.8   -0.4
H     0.1    4.0   -0.2
I    -3.2   -2.7    0.3
P    -1.9   -2.0    3.1
H     2.8    2.5    1.8
H     1.5    1.8    3.6
I     4.1    1.6   -0.4
H    -1.2    4.2   -1.4
H    -1.5    4.3    0.4
P    -0.7   -2.3   -4.0
I     0.9   -3.4    3.1
I     1.7   -3.8   -2.3
I    -4.5    1.6   -0.4
N     2.4    2.2    3.8
C     2.9    3.1    2.8
H     1.9    2.2   -4.1
H     3.6    2.9   -2.4
H     3.0    1.4    4.0
H     2.3    4.0    2.8
I    -3.5   -0.9   -4.0
P    -5.3   -1.3   -1.5
H    -1.4   -5.5    0.4
H     0.3   -5.8   -0.2
C     3.0    2.5   -4.4
H     3.6    1.6   -4.4
N     3.5    3.4   -3.3
H     2.3    2.7    4.7
H     2.8    4.2   -3.1
H    -1.1   -5.7   -1.4
H     4.0    3.3    3.0
C    -0.8   -6.0   -0.4
H    -1.6    1.4    5.7
I     5.5   -2.7    0.3
H    -5.1    2.9   -2.4
H    -4.7    3.3    3.0
I    -4.3   -0.5    4.8
I     4.3   -0.5    4.8
I     5.2   -0.9   -4.0
H    -5.9    2.5    1.8
I     1.5    6.1   -2.3
H    -4.3    3.8   -3.6
I    -2.2    4.7   -4.3
H     4.4    3.8   -3.6
H     3.0    3.0   -5.3
H     6.5    2.1   -0.4
H    -5.1    1.6   -4.4
H     2.5   -5.9    2.8
P     2.6   -3.0    5.7
H    -1.3    1.2   -6.7
I     0.5   -1.6   -6.8
I    -2.1   -5.1   -4.3
N    -5.2    3.4   -3.3
H    -5.6    1.4    4.0
C    -5.8    3.1    2.8
H     3.0   -5.7   -3.1
C    -1.9    1.7    6.7
I     0.7    6.4    3.1
I    -3.3   -4.5    4.7
H    -2.2    3.7    6.1
N    -1.0   -7.5   -0.3
H    -0.6    3.4    6.7
C    -5.7    2.5   -4.4
H    -1.9    3.5   -6.5
H    -2.9    1.5    6.9
I     0.5   -1.6    7.5
N    -6.3    2.2    3.8
H    -1.3    1.2    7.5
P     6.7   -2.0    3.1
N    -1.7    3.2    6.8
H    -5.9    4.2   -3.1
I    -3.4    5.3    4.7
N     7.5    2.4   -0.3
H    -0.8   -7.8    0.7
I    -3.3    7.2    0.3
C     3.1   -6.8    2.8
C    -1.9    1.7   -7.5
H    -2.0   -7.7   -0.4
H    -6.4    4.0    2.8
I     1.7    4.0    6.8
H     7.8    2.0    0.7
H    -2.9    1.5   -7.4
H     3.0   -7.3    1.8
H    -0.5   -8.0   -1.0
N     3.6   -6.5   -3.3
H    -4.1   -6.1   -3.6
N    -1.7    3.2   -7.4
H    -7.2    1.8    3.6
H    -6.8    2.2   -4.1
H     3.7   -7.0   -2.4
H     4.1   -6.5    3.0
H    -0.6    3.4   -7.5
I    -7.0   -3.8   -2.3
H    -5.6    3.0   -5.3
H     8.1    1.8   -1.0
H     7.2    4.3    0.4
H     4.5   -6.1   -3.6
H    -6.4    2.7    4.7
I     5.4   -4.5    4.7
I    -8.1    0.2   -2.5
H    -4.6   -6.5    3.0
P    -0.9    7.5   -4.0
I     8.1    0.8    2.8
H    -5.7   -5.7   -3.1
I     1.7    4.0   -7.5
H     7.4    4.2   -1.4
C     7.8    3.8   -0.4
P    -2.1    7.8    3.1
H    -1.9    3.5    7.8
H    -1.6    1.4   -8.5
I     5.3    5.3    4.7
P    -6.1   -3.0    5.7
N    -5.1   -6.5   -3.3
H    -5.0   -7.0   -2.4
H    -2.0   -6.1    6.1
H     2.1   -7.6   -4.1
H     2.4   -7.2    4.7
N     2.6   -7.7    3.8
H     1.6   -8.1    3.6
H    -6.2   -5.9    2.8
I     5.4    7.2    0.3
H     5.8    1.5    6.9
I    -7.8   -3.4    3.1
C     3.1   -7.4   -4.4
I     6.5    4.7   -4.3
H     7.3   -5.5    0.4
I     1.9   -5.9    6.8
P     2.5    6.8    5.7
H    -1.8   -6.3   -6.5
H    -2.2    3.7   -8.1
P     8.0   -2.3   -4.0
C    -5.6   -6.8    2.8
H     3.2   -6.8   -5.3
H     7.1    1.4    5.7
P     3.2    8.6   -1.5
I     4.3   -8.3   -0.4
H    -0.5   -6.4    6.7
I    -4.4   -8.3   -0.4
I     6.6   -5.1   -4.3
H    -5.7   -7.3    1.8
I    -0.5   -9.0    2.8
H     5.8    1.5   -7.4
P     2.6   -3.0   -8.6
H    -8.6    4.0   -0.2
H    -9.3    1.8   -1.0
H     7.6   -5.7   -1.4
I     9.3    0.2   -2.5
N    -1.5   -6.7    6.8
H     6.5    3.7    6.1
I    -7.2    6.1   -2.3
I     1.9   -5.9   -7.5
H     8.8    4.0   -0.2
C     6.8    1.7    6.7
I    -9.3    0.8    2.8
H    -9.6    2.0    0.7
H     3.2   -8.5    4.0
H     3.0    3.0    8.9
H    -0.5   -6.4   -7.5
C     7.9   -6.0   -0.4
I     0.8   -9.6   -2.5
H     6.8    3.5   -6.5
H     3.7   -8.3   -4.4
N    -1.5   -6.7   -7.4
H     7.4    1.2   -6.7
H     2.3    2.7   -9.5
N    -9.9    2.4   -0.3
H    -1.8   -6.3    7.8
H     6.7   -7.7   -0.4
H    -8.4   -5.8   -0.2
C    -5.6   -7.4   -4.4
P    -5.5    8.6   -1.5
H    -5.5   -6.8   -5.3
C     6.8    1.7   -7.5
N     7.0    3.2    6.8
H    -1.4   -8.5    5.7
I     0.5   10.0   -2.5
H    -2.0   -6.1   -8.1
C    -9.6    3.8   -0.4
I    -4.3   -0.5   -9.4
I     4.3   -0.5   -9.4
I    -3.7    8.9   -4.0
I    -7.0    4.0    6.8
P    -9.4   -2.3   -4.0
H     1.9    2.2   10.1
P    -0.7   -2.3   10.2
N    -6.1   -7.7    3.8
H    -5.0   -8.3   -4.4
C     3.0    2.5    9.9
H     7.4    1.2    7.5
H     3.6    1.6    9.9
I     9.5   -3.4    3.1
H    -6.3   -7.2    4.7
I     0.4    8.2   -6.8
H     9.0   -5.8   -0.2
N     7.0    3.2   -7.4
P     6.6    7.8    3.1
C    -1.7   -8.1    6.7
N     7.7   -7.5   -0.3
I    -8.0    6.4    3.1
I    -8.2   -1.6   -6.8
H     3.0    1.4  -10.2
P    -6.2    6.8    5.7
H    -5.5   -8.5    4.0
H    -9.9    4.2   -1.4
I    -3.5   -0.9   10.3
N     2.4    2.2  -10.4
H    -6.6   -7.6   -4.1
H     6.8    3.5    7.8
H     6.7   -6.1    6.1
H     1.5    1.8  -10.7
H    10.2    1.8    3.6
P    -6.1   -3.0   -8.6
I    -7.0    4.0   -7.5
H    -5.6    3.0    8.9
I     5.0    8.9   -4.0
H    -1.1   -8.6   -6.7
H     8.1    3.4    6.7
I    -0.8   10.6    2.8
H     6.5    3.7   -8.1
I    -3.3   -4.5   -9.6
I     0.4    8.2    7.5
H   -10.9    2.1   -0.4
H   -10.2    4.3    0.4
H    -2.8   -8.3    6.9
H     7.9   -7.8    0.7
H     7.1    1.4   -8.5
I    -2.2    4.7    9.9
I    -8.2   -1.6    7.5
P     2.5    6.8   -8.6
C    -1.7   -8.1   -7.5
C    -9.5   -6.0   -0.4
H    -5.1    1.6    9.9
I    -6.8   -5.9    6.8
I     4.2    9.3    4.8
I    10.4   -3.8   -2.3
P   -10.6   -2.0    3.1
H    -7.1   -8.1    3.6
I    -2.1   -5.1    9.9
I    -4.5    9.3    4.8
H     6.9   -6.3   -6.5
H    -9.8   -5.7   -1.4
P    -1.9   -2.0  -11.1
H    -2.8   -8.3   -7.4
I    -0.6    0.8  -11.4
I    -3.4    5.3   -9.6
H   -10.1   -5.5    0.4
H    -1.1   -8.6    7.5
H     8.2   -8.0   -1.0
I     5.2   -0.9   10.3
H     8.1    3.4   -7.5
I     9.2   -1.6   -6.8
P     7.8    7.5   -4.0
H    10.6    2.2   -4.1
I     0.9   -3.4  -11.1
C    -5.7    2.5    9.9
I    -6.8   -5.9   -7.5
H     3.2   -6.8    8.9
H    -0.8   11.6   -1.0
P     3.5  -11.1   -1.5
H    -6.4    2.7   -9.5
H    -5.6    1.4  -10.2
I     0.6    0.2   11.8
I     9.4    6.4    3.1
H   -10.3    1.4    5.7
I     5.4   -4.5   -9.6
H    -1.1   11.8    0.7
I    -3.4  -10.7   -4.0
N    11.1    2.2    3.8
H    11.5    2.5    1.8
N     7.2   -6.7    6.8
I     9.2   -1.6    7.5
N     3.5    3.4   10.9
H    -9.3    3.4    6.7
H    11.0    4.0    2.8
H    -1.4   -8.5   -8.5
I     4.0   11.4   -0.4
H   -10.0    1.2   -6.7
H    -4.3    3.8   10.7
I    10.2    6.1   -2.3
H     2.4   -7.2   -9.5
H     4.4    3.8   10.7
I   -11.9   -2.7    0.3
I     5.3    5.3   -9.6
H     6.7   -6.1   -8.1
H     6.9   -6.3    7.8
I    -4.2  -10.4    4.8
H    -2.3   12.0   -0.4
H     2.8    4.2   11.1
H     1.3   11.6    3.6
H    -9.2   -8.0   -1.0
C     2.9    3.1  -11.5
H     2.9   11.2    4.0
P    12.1   -1.3   -1.5
N    -9.7   -7.5   -0.3
H    11.0    2.7    4.7
N    -1.3   12.2   -0.3
I     4.5  -10.4    4.8
N     7.2   -6.7   -7.4
H    -9.5   -7.8    0.7
P    -5.2  -11.1   -1.5
H     5.9   -8.3    6.9
I    -4.7   11.4   -0.4
C    11.6    3.1    2.8
N    -6.3    2.2  -10.4
H    -6.8    2.2   10.1
H     2.3    4.0  -11.5
P    -1.8  -11.8    3.1
H     4.0    3.3  -11.3
H     8.2   -6.4    6.7
H    -9.3    3.4   -7.5
H    11.7    1.4    4.0
I     8.2   -9.0    2.8
H   -10.0    1.2    7.5
H    -5.5   -6.8    8.9
H     7.3   -8.5    5.7
P    -6.2    6.8   -8.6
N    -5.2    3.4   10.9
H     5.9   -8.3   -7.4
I     1.7   -3.8   11.9
I     5.3  -10.7   -4.0
I   -10.9    4.7   -4.3
C   -10.6    1.7    6.7
H    -4.7    3.3  -11.3
C     7.0   -8.1    6.7
H    11.5    4.2   -3.1
H     3.4   11.4   -4.4
I   -10.7   -5.1   -4.3
C    11.6    2.5   -4.4
H    -1.7   11.2    5.7
H     3.6    2.9   11.9
C     3.1   -7.4    9.9
I    -7.9   -9.6   -2.5
P    -0.9    7.5   10.2
I     6.5    4.7    9.9
P    -0.6  -12.1   -4.0
N   -10.3    3.2    6.8
H     2.7   12.4    1.8
N     2.3   12.0    3.8
H     2.1   -7.6   10.1
P    -9.6    7.5   -4.0
H     3.0   -5.7   11.1
H    12.3    2.9   -2.4
I    -3.0  -12.5    0.3
I     0.7    6.4  -11.1
H     8.2   -6.4   -7.5
H     1.8   12.1   -4.1
I   -12.2   -0.9   -4.0
H    11.2   -5.9    2.8
H   -10.6    3.5   -6.5
I    12.8    1.6   -0.4
H    -4.1   -6.1   10.7
I     6.6   -5.1    9.9
H     2.8    2.5  -12.4
H    -1.4   11.0   -6.7
H    -7.2    1.8  -10.7
H   -10.9    3.7    6.1
P    11.3   -3.0    5.7
I    10.4    4.0    6.8
N    12.2    3.4   -3.3
C   -10.6    1.7   -7.5
H    -9.2   -6.4    6.7
C     7.0   -8.1   -7.5
H    12.3    1.6   -4.4
H     4.5   -6.1   10.7
N   -10.3    3.2   -7.4
H     2.5   -5.9  -11.5
P     6.7   -2.0  -11.1
I    -9.2   -9.0    2.8
N     2.6   -7.7  -10.4
P     8.0   -2.3   10.2
I    -8.2   10.0   -2.5
C    -5.8    3.1  -11.5
H   -10.7   -7.7   -0.4
H    -5.8   11.2    4.0
H    -5.1    2.9   11.9
N     3.6   -6.5   10.9
H    11.7    3.0   -5.3
H    -5.9    4.2   11.1
H    -5.3   11.4   -4.4
P     3.4   -1.3   12.8
H     7.6   -8.6   -6.7
C     2.8   12.3   -4.4
I   -13.2    1.6   -0.4
H    11.7   -5.7   -3.1
I     0.6  -11.5   -6.8
H     3.4   12.7   -2.4
H    -0.6    1.8   13.2
H   -10.3    1.4   -8.5
H    -1.4   11.0    7.5
H     3.7   -8.3    9.9
H    12.7    3.3    3.0
I    10.4    4.0   -7.5
H    -6.3   -7.2   -9.5
I     1.5    6.1   11.9
