         400
 sphere cut out from bulk 
P    -0.5   -1.4   -0.6
I    -1.5    1.1    1.7
I     1.4    0.5   -2.1
H    -0.9    2.9   -0.0
I     1.9   -1.6    1.8
H     3.3    0.5    1.5
H    -0.2    3.0   -2.3
I    -3.1   -0.8   -2.2
N    -1.1    3.7   -0.6
P    -0.6   -1.2    3.8
I    -2.1   -3.1    1.8
C    -0.1    3.9   -1.7
H     0.9    4.0   -1.3
H    -2.1    3.7   -1.0
H     3.5    2.2    1.5
I     0.4   -3.9   -2.2
N     3.9    1.3    1.9
H    -4.1    1.2    1.5
H     3.5   -3.0   -0.2
H    -1.1    4.6    0.0
H     2.9    1.4    3.7
H    -1.0   -0.5   -5.1
H    -1.1    3.1    4.1
H     4.9    1.2    1.5
H     0.4   -1.3   -5.1
H    -0.3    4.8   -2.3
C     3.9    1.3    3.3
I     2.3    4.5    1.8
H     3.0   -3.9   -2.4
N    -5.1    1.3    1.9
C     3.9   -3.9   -0.6
H     0.5    3.8    4.1
N    -0.5   -1.3   -5.5
H    -1.0   -2.2   -5.1
H     4.3    0.4    3.7
P     3.9    1.3   -3.9
H    -4.0   -4.1   -0.2
H     3.3   -4.8   -0.2
H    -5.6    0.5    1.5
H     4.5   -3.1   -2.4
I     0.9    0.6    5.8
C    -0.5    3.9    4.4
N     4.0   -3.9   -2.1
H    -4.5   -3.1   -2.4
H    -4.7    0.4    3.7
H     3.5   -3.0    3.9
H    -5.5    2.2    1.5
I    -4.3    3.9   -2.0
H    -4.4    2.1    3.7
C    -5.1    1.3    3.3
H    -5.4   -3.0   -0.2
H     4.5    2.1    3.7
I     5.8   -0.8   -2.2
H     0.4   -6.0    1.9
I     4.7    3.9   -2.0
C    -5.0   -3.9   -0.6
H     5.0   -4.1   -0.2
H    -0.9    4.9    4.1
H    -1.4   -6.0    1.9
I    -2.4    1.9   -5.7
P    -5.0    1.3   -3.9
I    -3.0   -1.0    5.8
N    -5.0   -3.9   -2.1
I     3.1   -1.3   -5.8
I    -2.6    6.0    1.8
I     0.3   -3.6    5.7
H    -4.0   -4.0    3.9
C    -0.5   -6.5    2.3
I     2.1    3.3   -5.7
H    -0.3   -5.5    4.1
H     4.4   -4.8   -2.4
H    -0.1    3.0    6.3
H     3.3   -4.7    3.9
C     3.9   -3.9    4.3
H    -4.5   -4.8   -2.4
C    -0.5   -1.3   -7.0
N    -0.6    3.9    5.9
H    -6.1    1.4    3.7
H     0.0   -0.4   -7.3
H    -5.4   -3.0    3.9
H    -5.6   -4.8   -0.2
I    -7.1   -1.6    1.8
H     5.0   -4.0    3.9
N    -0.5   -6.5    3.8
H    -6.0   -3.9   -2.4
H    -1.5   -1.2   -7.3
H    -1.5    4.0    6.3
H    -0.0   -2.2   -7.3
I    -2.3   -4.4   -5.7
P    -0.5   -6.5   -3.9
I     1.4    7.2   -2.2
C    -5.0   -3.9    4.3
P     3.9    6.6   -0.6
I     6.9   -3.1    1.8
H     2.9   -3.8    6.1
I     3.2   -6.9    1.8
I     7.5    1.1    1.7
H    -0.6   -7.5    1.9
H    -0.0    4.7    6.3
H     6.9    3.7   -1.0
I    -7.6    0.5   -2.1
N     3.9   -3.9    5.7
I    -3.2   -7.1   -2.2
H    -1.4   -6.8    4.2
H     4.5   -3.1    6.1
H    -4.5   -3.1    6.1
P    -0.6    3.9   -7.2
I    -6.6    4.5    1.8
H     0.2   -7.1    4.2
P    -5.1    6.6   -0.6
H    -0.6    8.1    1.9
I    -4.1    4.2    5.8
P    -0.6   -1.3    8.2
I    -5.8   -1.3   -5.8
H    -5.7   -4.7    3.9
I     6.0   -1.0    5.8
H     3.4    5.6   -5.3
P     3.9    6.4    3.7
H     2.8    1.4    7.9
H     8.0    2.9   -0.0
P     8.4   -1.4   -0.6
N    -5.0   -3.9    5.7
I     2.1   -5.9   -5.8
I     4.8    4.2    5.8
N     7.9    3.7   -0.6
I     1.4   -8.4   -2.2
I    -1.4    6.6   -5.8
H     4.4   -4.8    6.1
I     6.3    6.0    1.8
I     6.6    1.9   -5.7
P    -5.0    6.4    3.7
H    -4.6   -4.8    6.1
H     4.3    0.4    7.9
H    -8.1    4.0   -1.3
H     7.9    4.6    0.0
I     1.5    6.9    5.7
P     4.0   -3.9   -7.3
I    -5.8   -6.9    1.8
H    -4.6    0.4    7.9
C     3.9    1.3    8.3
P     8.4   -1.2    3.8
H    -4.1    6.5   -5.3
H     4.4    2.2    7.9
H     7.8    3.1    4.1
I     5.8   -7.1   -2.2
I    -3.2    8.5   -2.2
H    -6.0   -3.8    6.1
H    -4.5    2.2    7.9
C    -0.6    9.1    2.3
N     3.9    6.5   -5.6
H     7.9   -0.5   -5.1
H     0.2    8.5    4.2
I     3.1    8.7    1.8
H    -5.6    5.6   -5.3
I    -6.9    3.3   -5.7
H     8.8    3.0   -2.3
P    -9.5   -1.4   -0.6
P    -5.0   -3.9   -7.3
H     3.4    7.3   -5.3
H     4.9    6.5   -5.3
H     8.0   -2.2   -5.1
I    -8.6   -3.9   -2.2
I     0.4    1.5   -9.7
H     0.3    9.6    1.9
I    -3.4   -7.2    5.7
H     7.5   -6.0    1.9
C    -5.1    1.3    8.3
H    -0.0   -5.5    8.1
I    -1.5    1.4    9.6
C     8.9    3.9   -1.7
I     6.6   -4.4   -5.7
H     3.0    1.3   -9.3
H    -1.5    8.8    4.2
P     3.9   -9.0   -0.6
N    -0.5    9.1    3.8
H    -9.1    3.0   -2.3
P    -0.5    9.1   -3.9
H    -1.5    9.6    1.9
I    -8.0    0.6    5.8
N    -5.1    6.5   -5.6
C    -9.1    3.9   -1.7
H    -8.5   -1.3   -5.1
I     2.1   -1.9    9.7
H    -6.1    1.4    7.9
H     8.6    4.8   -2.3
N     8.4   -1.3   -5.5
I    -2.6   -9.6    1.8
H    -8.5    3.8    4.1
H     8.0    4.9    4.1
H     4.4    5.5   -7.4
H     4.4    0.4   -9.3
H     2.9    6.5   -7.4
C     8.4    3.9    4.4
H    -9.9    2.9   -0.0
I     9.3   -3.9   -2.2
P    -9.5   -1.2    3.8
H    -4.6    0.4   -9.3
H    -4.6    5.5   -7.4
C     3.9    6.5   -7.1
P    -5.0   -9.0   -0.6
H     3.4   -8.3   -5.3
I     1.5   -3.5   -9.7
H    -1.6   -6.4    8.1
I    -3.4   -2.0   -9.7
H     7.4   -1.2   -7.3
N     4.0    1.3   -9.6
H     7.4    4.0    6.3
I    -2.4   -3.3    9.7
I     1.5   -8.7    5.7
I     5.7    8.5   -2.2
H    -4.5    2.1   -9.3
H     4.5    2.1   -9.3
I    10.3    0.5   -2.1
N     3.9    1.3    9.8
H    -5.6    7.3   -5.3
C    -0.5   -6.4    8.4
I   -10.4    1.1    1.7
I    -5.8    8.7    1.8
P     4.0   -9.2    3.7
H    -8.6   -6.0    1.9
H     3.4    0.5   10.1
I    -7.6    7.2   -2.2
H     9.9    4.0   -1.3
H    -9.3    4.8   -2.3
I     5.5   -7.2    5.7
H     0.0   -5.7   -9.1
I     2.0    4.5    9.5
I    -3.5    8.4    5.7
N   -10.1    3.7   -0.6
H     9.4   -1.3   -5.1
I    -6.9   -5.9   -5.8
I    -1.4   -9.1   -5.8
C    -5.1    6.5   -7.1
I    -3.0    4.2   -9.6
H     3.4    2.2   10.1
C     8.4   -6.5    2.3
H    -0.4   10.1    4.1
H    -0.0   -7.3    8.1
N    -5.0    1.3   -9.6
H     7.5   -6.8    4.2
I    -8.6   -3.6    5.7
H    -4.1    1.3   10.1
N     8.4    3.9    5.9
H     9.5    3.8    4.1
C     8.4   -1.3   -7.0
N    -9.5   -1.3   -5.5
H     8.6   -5.5    4.1
H   -10.1    4.6    0.0
H    -0.3  -10.8   -2.3
H    -1.1  -11.0    0.0
I    10.8   -1.6    1.8
P    -5.0   -9.2    3.7
N    -5.1    1.3    9.8
P     3.9    6.5    8.1
H    -6.0    1.3   -9.3
C    -9.5    3.9    4.4
I     1.0    5.8   -9.5
H   -10.0   -0.5   -5.1
H    -0.3   -0.4  -11.2
H     9.3   -6.0    1.9
H     8.8    3.0    6.3
H    -1.5   -6.5   -9.1
H    -5.6   -8.3   -5.3
H    -4.1   -9.1   -5.3
N     8.4   -6.5    3.8
H     4.8    1.3   10.1
H   -10.1    3.1    4.1
H     3.3   10.8   -0.2
I     5.6   -2.0   -9.7
P     8.4   -6.5   -3.9
H     4.5    7.3   -7.4
H    -4.5    7.3   -7.4
H     0.2   -2.0  -11.2
N     3.9   -9.1   -5.6
H    -1.4   -1.6  -11.2
H   -10.0   -2.2   -5.1
I     2.4  -11.1    1.8
H     8.4   -7.5    1.9
H    -9.1    3.0    6.3
I     2.1    9.7   -5.8
N    -0.5   -6.5   -9.4
I     9.3   -3.6    5.7
I     9.9    0.6    5.8
I     7.5    6.6   -5.8
H    -9.0   -0.4   -7.3
H    -0.9  -10.7    4.1
I    -7.6   -8.4   -2.2
H    -0.1    8.3    8.1
H     9.0   -0.4   -7.3
H    -5.6    0.5   10.1
P    -5.0    6.5    8.1
I     5.5    8.4    5.7
H    -9.3   -5.5    4.1
H     4.9   -9.1   -5.3
I    -2.4    6.0    9.6
I   -11.1   -3.1    1.8
H    -6.1    6.5   -7.4
H   -11.0    3.7   -1.0
I     6.4   -9.6    1.8
I    -7.5    6.9    5.7
N    -0.5   -1.3  -11.6
P     8.4    3.9   -7.2
H    -0.1   -7.4   -9.1
C    -9.5   -6.5    2.3
H    -1.1   -5.6   10.3
H    -5.6    2.2   10.1
H     0.9  -11.7   -1.3
H     9.0   -2.2   -7.3
H    -9.0   -2.2   -7.3
H    -9.9    4.9    4.1
P     8.4   -1.3    8.2
H     3.4  -10.0   -5.3
H     8.4    8.1    1.9
C    -9.5   -1.3   -7.0
N    -5.1   -9.1   -5.6
N    -0.6   -6.5    9.9
C    -0.1  -11.7   -1.7
C     4.0    1.3  -11.1
N    -9.5    3.9    5.9
I     0.3   11.7   -2.2
H     9.0    4.7    6.3
N    -1.1  -11.9   -0.6
H     4.4   10.8   -2.4
H    -9.0    4.7    6.3
H     3.3    0.4  -11.5
I     3.1   -6.5    9.6
H    -4.5   10.8   -2.4
H     4.5   -8.3   -7.4
H    -4.5   -8.3   -7.4
H     3.3   10.9    3.9
I    -6.9   -1.9    9.7
H    -8.8   -7.1    4.2
I     6.0    4.2   -9.6
H     2.9   -9.1   -7.4
I    -4.1   -6.2   -9.6
N    -9.5   -6.5    3.8
P    -0.6    3.9   11.5
I     6.5   -3.3    9.7
H     0.4   -6.5   10.3
H   -10.4   -6.0    1.9
H    -2.0  -11.9   -1.0
P    -9.5   -6.5   -3.9
H    -4.0    1.1  -11.5
C     3.9   -9.1   -7.1
H    -4.0   11.5   -0.2
H     3.6    2.2  -11.5
H    -5.7   10.8   -0.2
H    -0.1    8.2   -9.1
P    -0.5    3.9  -11.6
C    -5.0    1.3  -11.1
I     7.5    1.4    9.6
H     3.0   11.7   -2.4
H     7.5    8.8    4.2
H    -9.5   -7.5    1.9
I    11.3    4.5    1.8
H     9.2   -7.1    4.2
C     3.9   11.7   -0.6
I   -12.1   -0.8   -2.2
H    -1.6    9.2    8.1
H     7.5    9.6    1.9
I     4.9   -6.2   -9.6
H    12.3    0.5    1.5
C    -0.6    9.2    8.4
H    11.8    1.4    3.7
N     3.9   11.7   -2.1
H     0.5  -11.8    4.1
C    -0.5  -11.7    4.4
H     5.0    1.1  -11.5
H     5.0   11.5   -0.2
P    -9.5    3.9   -7.2
H    -5.5  -10.0   -5.3
C     8.4    9.1    2.3
H     0.0  -10.9    6.3
H    -0.9   -5.6  -11.3
I    -6.9    4.5    9.5
C    -5.1   -9.1   -7.1
H    -1.0   -7.3   10.2
H    -9.5    8.1    1.9
P    -9.6   -1.3    8.2
I    -4.3  -11.8   -2.0
I    -7.4   -3.5   -9.7
H     7.4   -6.4    8.1
H    12.4    2.2    1.5
P     3.9   -3.9   11.5
C    -5.0   11.7   -0.6
H    -0.9  -12.7   -0.0
C    -0.5   -6.5  -10.9
I    10.3    7.2   -2.2
I    -2.4   11.2   -5.7
I    -2.1   12.5    1.8
H    -5.6    0.4  -11.5
I    -7.5   -8.7    5.7
H    11.9   -3.9   -2.4
I     4.7  -11.8   -2.0
P     3.9   -9.1    8.1
H    -0.2  -12.6   -2.3
I   -11.4    1.9   -5.7
H    -4.0   11.6    3.9
H    12.5   -3.0   -0.2
H   -10.5    4.0    6.3
