         400
 sphere cut out from bulk 
I    -0.1    0.8    1.4
P     1.8   -1.3    0.0
H    -1.7    0.8   -1.9
H    -2.1   -0.8   -1.8
H     0.9    2.8    0.1
I     1.6    0.5   -2.6
N    -2.5    0.2   -1.9
I    -0.9   -2.9   -1.1
H    -3.1    0.4   -1.1
N     0.9    3.8   -0.3
H    -1.7   -3.4    1.5
H     1.0    3.8   -1.3
H     1.3    0.1    3.9
H     0.0    4.2   -0.0
P    -2.7    2.3    2.7
I     1.7   -3.2    2.6
I     4.4    0.2    1.0
C    -3.3    0.3   -3.2
I    -4.6    0.2    1.0
H    -2.6    0.0   -4.0
H    -2.7   -2.3    3.5
C     2.1    4.5    0.3
H     3.0    4.0    0.0
N    -2.3   -3.9    2.2
H    -3.8   -2.5    2.1
I    -2.7    4.3    0.1
H    -3.6    1.3   -3.3
C     2.0    0.3    4.7
H     2.0    4.5    1.4
H    -4.1   -0.5   -3.2
I     3.6   -3.4   -1.6
H     0.5   -2.8   -4.4
C    -3.2   -3.0    2.9
H     2.0   -3.3   -3.7
H     2.4    1.3    4.6
H     2.8   -0.4    4.6
H    -1.7   -4.4    2.9
H    -2.7   -4.6    1.6
I    -0.1    4.5   -3.6
N     1.3   -3.4   -4.5
H     4.9   -0.5   -3.2
I    -2.6    0.4    5.2
H     2.1   -5.5   -0.1
H     2.1    5.5   -0.1
H     5.9    0.4   -1.1
P     1.7    2.3   -5.2
H     5.1   -2.5    2.1
I    -0.8    4.5    4.0
N     1.3    0.2    6.0
H     0.5    0.9    6.1
H     0.9   -4.4   -4.3
H     0.9   -0.8    6.1
H    -3.9   -3.6    3.5
H     5.3    1.3   -3.3
P    -2.9   -5.1   -2.7
I     3.7    3.8    3.8
I    -0.8    0.9   -6.4
C     5.7    0.3   -3.2
I    -5.4   -3.4   -1.6
I    -2.6   -3.2   -5.2
H     2.4   -2.3   -5.9
N     6.5    0.2   -1.9
H     0.0   -6.8   -0.0
C     2.1   -6.5    0.3
C     2.0   -3.3   -5.8
H     2.0   -6.6    1.4
C     5.7   -3.0    2.9
I     4.3    3.9   -4.1
H     2.0    0.4    6.8
P    -2.8    6.0   -2.7
H     6.9   -0.8   -1.8
P     6.2    2.3    2.7
H     5.1   -3.6    3.5
H    -5.9    4.0    0.0
H    -2.7    6.4    1.6
I    -2.7   -6.8    0.1
P    -7.2   -1.3    0.0
N     0.9   -7.3   -0.3
I    -4.7    3.9   -4.1
H    -1.7    6.6    2.9
I    -0.1   -2.9    6.8
H     0.9   -7.3   -1.3
H     6.3   -2.3    3.5
I    -0.1   -6.6   -3.6
P     1.7   -5.1    5.2
I    -5.3    3.8    3.8
H     6.4    0.0   -4.0
H     7.3    0.8   -1.9
H     1.3   -3.5   -6.6
I     6.2    4.3    0.1
H     2.8   -4.0   -5.8
I     3.7    0.2   -6.7
H     3.0   -7.1    0.0
H    -6.1   -0.4    4.6
I    -0.8   -6.6    4.0
N    -2.3    7.2    2.2
H    -2.6    3.7    6.4
I    -7.4    0.5   -2.6
H     6.2   -4.6    1.6
H    -1.6    7.7    1.5
H     0.9    6.7   -4.3
N     6.7   -3.9    2.2
P     1.8    5.9    5.2
H    -6.6    1.3    4.6
H     7.3   -3.4    1.5
C    -6.9    4.5    0.3
I     6.3    0.4    5.2
I    -0.9    8.1   -1.1
H     0.9   -8.2    0.1
I    -7.2   -3.2    2.6
H    -1.7    3.0   -7.6
P     6.1   -5.1   -2.7
P    -2.7   -1.4   -7.8
C    -6.9    0.3    4.7
H    -7.0    4.5    1.4
P    -2.8   -1.5    7.8
I     4.3   -3.5    6.4
I     1.8    7.8    2.6
I    -5.3    0.2   -6.7
H    -7.0   -3.3   -3.7
H    -8.1    2.8    0.1
I     3.6    7.6   -1.6
H    -7.7    0.1    3.9
I     8.0   -2.9   -1.1
I    -4.7   -3.5    6.4
I     6.3   -3.2   -5.2
H    -6.9    5.5   -0.1
H    -6.9   -5.5   -0.1
H     2.0    7.8   -3.7
H    -3.9    3.8   -7.0
C    -3.2    3.9    7.3
N    -8.0    3.8   -0.3
N     1.3    7.6   -4.5
H    -8.0    3.8   -1.3
I     3.7   -7.2    3.8
H    -4.1    3.2    7.3
P     6.1    6.0   -2.7
I     8.8    0.8    1.4
H     7.3   -4.4    2.9
I     1.6    4.1    7.9
H    -3.9    7.4    3.5
H    -2.7    5.2   -7.0
H     6.2    6.4    1.6
I     1.7    4.2   -7.9
H    -6.6   -2.3   -5.9
C    -3.2    8.1    2.9
I     6.2   -6.8    0.1
P    -7.2    2.3   -5.2
I    -9.1    0.8    1.4
H    -6.0   -7.1    0.0
I     4.2   -7.2   -4.1
N    -2.3    3.5   -8.3
H     2.0    0.9   -9.1
H     4.9    3.2    7.3
H    -2.1    2.8    8.7
H    -6.1   -4.0   -5.8
C    -3.2    4.4   -7.6
H     0.5    8.3   -4.4
H    -3.6    4.9    7.2
H     5.1    3.8   -7.0
I    -5.4    7.6   -1.6
I    -0.9    0.7    9.4
I    -0.2   -2.8   -9.1
N    -7.6   -3.4   -4.5
C    -6.9   -6.5    0.3
I    -4.7   -7.2   -4.1
I     3.6    0.2    8.8
H    -2.7   -5.9   -7.0
H     2.8    7.0   -5.8
P    -2.7   -8.8    2.7
H    -3.8    8.6    2.1
C    -7.0   -3.3   -5.8
N    -2.5    3.8    8.5
H     5.1    7.4    3.5
H    -7.0   -6.6    1.4
H    -2.7    2.8   -8.9
N    -7.6    0.2    6.0
I    -5.3   -7.2    3.8
H    -7.0    0.4    6.8
H     6.4    3.7    6.4
H    -1.7    4.5    8.5
I    -2.6    7.9   -5.2
H    -2.7    8.8    3.5
P     1.8    9.7    0.0
H    -8.9    4.2   -0.0
C     2.0    7.7   -5.8
H    -8.4   -2.8   -4.4
H     1.0   -3.7    9.2
H     9.0    4.2   -0.0
H    -1.6    4.1   -8.9
P     6.1   -1.5    7.8
C     5.7    3.9    7.3
N     6.7    7.2    2.2
P     6.2   -1.4   -7.8
H     1.3    7.5   -6.6
H    -3.6   -6.1    7.2
H    -8.0   -0.8    6.1
I     8.1    4.5    4.0
H    -2.6   -7.4    6.4
H    -8.0   -4.4   -4.3
H     5.3    4.9    7.2
H     5.1    8.6    2.1
H     9.8    2.8    0.1
H     7.3    6.6    2.9
P    -7.2   -5.1    5.2
C     5.7    8.1    2.9
I    -0.2  -10.2    1.4
P     1.7   -8.7   -5.2
I    -5.4    0.2    8.8
I    -9.9   -2.9   -1.1
I     8.1    0.9   -6.4
C     2.1    0.9  -10.2
H    -8.4    0.9    6.1
H    -3.8    4.9   -8.4
H     0.9   -0.8  -10.4
C     5.7    4.4   -7.6
H     0.0    0.6  -10.5
H    -1.7  -10.2   -1.9
I     8.8    4.5   -3.6
I     1.7   -6.8   -7.9
N     9.9    3.8   -0.3
C    -3.3   -6.6   -7.6
I    -0.1    8.1    6.8
I     1.6   -6.9    7.9
H    -2.1   10.3   -1.8
H    -3.1    4.0    9.4
H     9.9    3.8   -1.3
P    -7.2    5.9    5.2
C    -3.3   -7.1    7.3
H    -7.7   -3.5   -6.6
H     6.3    5.2   -7.0
H     7.3    7.7    1.5
I     4.3    7.5    6.4
I    -9.1    4.5   -3.6
H    -3.9   -7.2   -7.0
I    -2.7    0.6  -10.4
N     0.9    0.2  -10.7
H     2.1   -1.9   10.4
H     9.5   -2.8   -4.4
P    10.7   -1.3    0.0
H     5.3   -6.1    7.2
H     2.4    8.8   -5.9
I    10.5    0.5   -2.6
N    -8.0   -7.3   -0.3
H   -10.6    0.8   -1.9
N     0.9   -3.6   10.2
P     1.8    2.3   10.5
H     3.0    0.4  -10.5
I    -4.7    7.5    6.4
H     2.1    1.9  -10.5
H    -8.0   -7.3   -1.3
H    -1.7   -6.6    8.5
H    -3.7   -9.8   -3.3
H     0.0   -3.2   10.5
H     7.3    3.0   -7.6
I    -7.2    7.8    2.6
H    10.2    0.1    3.9
I     4.4   -3.4   -9.5
H     5.1    4.9   -8.4
I     1.5  -10.6   -2.6
H     2.4   -9.7    4.6
H    -6.1    7.0   -5.8
H    -3.9   -6.1   -8.4
I    -4.6   -3.4   -9.5
H    -7.0    7.8   -3.7
P     6.2   -8.8    2.7
H     6.3   -5.9   -7.0
H     6.2    2.8   -8.9
I     8.1   -6.6    4.0
H    -3.1  -10.7   -1.1
H    -1.7   -8.0   -7.6
N     6.7    3.5   -8.3
H   -11.1   -0.8   -1.8
H   -10.6   -3.4    1.5
H     5.1   -7.2   -7.0
H    -8.9   -6.8   -0.0
H     9.0   -6.8   -0.0
H    -8.0    6.7   -4.3
H     9.5    0.9    6.1
N    -2.5  -10.9   -1.9
I    -2.7   -3.1   10.5
H     6.3    8.8    3.5
C     2.1   -2.9   10.8
I     6.3    7.9   -5.2
N     6.5    3.8    8.5
N    -2.3   -7.5   -8.3
H     6.9    2.8    8.7
H     3.0   -3.4   10.5
I    10.7   -3.2    2.6
N    -2.5   -7.2    8.5
H    -1.7   -7.0   -8.9
H    -7.0    0.9   -9.1
I    -7.2    4.2   -7.9
H    -4.1   -7.9    7.3
I     8.1    8.1   -1.1
I    -9.8    4.5    4.0
H     5.1   -6.1   -8.4
I     8.8   -2.9    6.8
I    -7.4    4.1    7.9
H     0.9   -4.6   10.5
H    -8.1   -8.2    0.1
C     5.7   -6.6   -7.6
I     8.8   -6.6   -3.6
H     5.3   -9.8   -3.3
N   -11.4    0.2   -1.9
H     9.9   -4.4   -4.3
N    -2.5   11.2   -1.9
H     9.9   -0.8    6.1
N    -7.6    7.6   -4.5
C     5.7   -7.1    7.3
H     6.4   -7.4    6.4
H     1.3  -10.9    3.9
N    10.3   -3.4   -4.5
C    -3.3  -10.8   -3.2
P     1.8   -5.0  -10.5
I     4.4  -10.8    1.0
I    -9.1   -2.9    6.8
H     5.9    4.0    9.4
I    -9.8    0.9   -6.4
H    -4.1   10.6   -3.2
H     4.9   -7.9    7.3
I    -9.1   -6.6   -3.6
I    -4.6  -10.8    1.0
H     1.0    7.4    9.2
H     0.9    0.1  -11.8
H    -3.1   11.4   -1.1
C     2.0  -10.7    4.7
H     0.5  -10.2    6.1
H   -10.6   -4.4    2.9
H     1.3   11.1    3.9
C    -6.9    7.7   -5.8
N    10.3    0.2    6.0
H    11.0    4.5    1.4
I     1.6   11.5   -2.6
C    11.0    0.3    4.7
C    11.1    4.5    0.3
I    -0.1   11.9    1.4
H     2.9   10.6    4.6
H    10.9   -3.3   -3.7
H     1.0   10.3    6.1
H    -2.6  -11.0   -4.0
H    -6.0    0.4  -10.5
P    -7.2    9.7    0.0
H    -2.6   11.1   -4.0
I    -0.9  -10.2   -6.4
H     7.3    4.5    8.5
N   -11.2   -3.9    2.2
H     4.9   10.6   -3.2
H   -12.0    0.4   -1.1
H    -1.6    0.3   12.0
I    -2.6  -10.6    5.2
H    -2.1   -8.2    8.7
P    10.7    2.3   -5.2
H    -3.1   -7.1    9.4
I     4.4   11.3    1.0
H    -1.7   11.9   -1.9
I     6.2    0.6  -10.4
H    -2.1  -11.8   -1.8
I    -4.6   11.3    1.0
C    -3.2   11.3   -3.2
P   -11.7    2.3    2.7
H     5.8  -10.7   -1.1
P     1.8    6.1  -10.5
H   -11.5    0.0   -4.0
H     7.3    4.1   -8.9
N     9.9   -7.3   -0.3
I    -0.1    8.2   -9.1
C    -6.9    0.9  -10.2
H    11.3    1.3    4.6
H    11.0   -5.5   -0.1
H     9.9   -7.3   -1.3
H    11.1    5.5   -0.1
H   -11.6   -2.3    3.5
H     0.9    6.4   10.5
H     2.0   -2.9   11.9
H    -2.8   -8.2   -8.9
I    -0.9    4.5  -11.5
I     8.1    0.7    9.4
I   -11.7    4.3    0.1
H    -2.7   -1.0   12.1
H    -3.1   -3.3  -11.6
H    -6.6    8.8   -5.9
C     2.0   11.4    4.7
N     1.3  -10.8    6.0
I    -9.8   -6.6    4.0
H     6.9   10.3   -1.8
P    -7.2   -8.7   -5.2
P     1.8  -12.4    0.0
H    -5.9   -3.4   10.5
H    -6.6   -9.7    4.6
H    -8.4    8.3   -4.4
H    -7.7    7.5   -6.6
C     5.7  -10.8   -3.2
H    -6.9   -1.9   10.4
H    -4.1  -11.5   -3.2
H    12.0    4.0    0.0
C   -12.2    0.3   -3.2
N     0.9    7.4   10.2
I     6.2   -3.1   10.5
H    10.2   -3.5   -6.6
