         400
 sphere cut out from bulk 
H     0.5   -0.7    1.1
H    -1.2   -0.4    1.2
C    -0.4   -1.0    1.4
H    -0.6   -2.0    1.1
I    -0.8    2.4   -0.4
I     0.1   -1.4   -2.8
N    -0.4   -1.1    2.9
I     3.2    0.2    0.2
P     1.6    1.4   -2.4
H    -0.2   -0.2    3.3
H     0.4   -1.7    3.3
H    -2.1    1.3   -2.8
H    -1.3   -1.5    3.3
H    -3.2   -0.2   -2.8
I    -3.8   -1.9   -0.4
H     3.2    2.4    1.6
H     2.0   -3.1   -2.6
C    -3.1    0.9   -3.1
H    -4.1    1.6   -1.5
I     0.1    2.3    4.0
I    -0.2   -4.8    0.1
H     2.4    3.0    2.9
P    -2.1   -3.8   -2.3
P    -2.0    4.0    2.1
H     2.1   -4.3   -1.4
N     3.3    3.1    2.3
H     4.0   -2.8   -1.3
N    -4.2    1.7   -2.5
N     2.5   -3.9   -2.3
I    -4.2    1.7    2.5
H    -3.2    0.9   -4.2
H     2.7    4.7    1.1
I     0.1    2.7   -4.9
I     3.2    4.2   -2.0
H    -4.1    2.6   -2.8
C     4.0   -3.6   -2.1
H     4.1    2.8    2.9
P     5.3   -1.2    2.1
I     3.9   -4.0    1.8
I     3.5   -0.5    4.7
I     4.0    0.4   -4.3
I    -3.5   -2.5    4.1
C     3.5    4.4    1.8
H    -5.1    1.3   -2.8
H     2.4   -4.6   -3.0
P    -5.6   -1.2    2.1
H     0.8    5.8   -1.8
H     4.4   -3.2   -3.1
H    -0.2    0.0   -6.4
H     4.4    4.5    1.2
H    -1.6    6.1   -1.4
H     0.4   -2.3   -6.1
I     0.2    6.3    1.8
H    -1.3   -2.1   -6.1
H     4.5   -4.5   -1.8
H    -1.3    5.7   -3.0
H     5.9    1.3   -2.8
H    -2.8   -5.9    1.2
I     0.4   -4.8    4.7
I    -3.6   -2.8   -5.0
H     3.6    5.1    2.6
I    -3.9    5.6    0.1
H    -2.9    1.9    5.9
H    -3.7   -5.2    2.6
N    -1.2    6.4   -2.3
P     1.7   -6.4    2.1
N    -0.4   -2.0   -6.7
P     1.7    1.3    6.7
I    -0.3   -1.1    7.0
C     0.3    6.7   -2.1
I    -0.2   -5.6   -4.3
H     2.3    3.8   -5.7
H     6.9    1.6   -1.5
C    -3.8   -5.9    1.8
C    -0.2   -0.7   -7.2
I     6.7    1.7    2.5
H    -4.6   -5.7    1.1
N     6.8    1.7   -2.5
I     7.2   -1.9   -0.4
H     3.3   -2.6    6.2
I    -3.9    4.7   -4.3
H    -6.9   -2.8   -1.3
H     0.3    7.5   -1.3
I    -4.1   -6.2   -2.0
H     4.2   -4.3    4.8
H     2.3   -4.0    6.2
H    -4.9    0.5    6.0
H     0.5    6.0    4.8
H    -2.8    0.6    7.2
H     0.7    7.1   -3.1
H     3.9    3.5   -5.7
C    -3.3    1.5    6.9
I    -7.8    0.2    0.2
H     0.7   -0.7   -7.8
H     6.8    2.6   -2.8
P    -1.9   -3.8    6.6
H    -1.7    7.3   -2.6
H    -1.1   -0.4   -7.8
I     3.0   -3.5   -6.5
H    -0.5   -2.7   -7.4
H    -6.8    2.8    2.9
I    -3.3    5.5    4.7
H     0.6    4.9    6.2
H    -6.6   -3.2   -3.1
N     3.2    4.1   -6.1
H    -6.5    4.5    1.2
H    -6.5   -4.5   -1.8
N     3.2   -3.6    6.5
I    -3.6    1.2   -7.2
I     3.8    3.7    6.2
C    -7.0   -3.6   -2.1
H    -0.4   -7.7   -2.8
I    -7.0    0.4   -4.3
H    -7.7    2.4    1.6
P    -2.1    4.0   -6.9
N    -4.7    1.2    6.7
H     7.8   -0.2   -2.8
H     3.3    5.1   -5.7
I    -7.1   -4.0    1.8
C     0.6    6.0    5.9
I     2.9   -7.9   -0.4
C     4.3   -4.3    5.9
C     7.9    0.9   -3.1
H     6.1    0.5    6.0
H    -5.3    2.0    6.4
N    -7.7    3.1    2.3
H     6.4   -5.7    1.1
H    -3.2    2.3    7.6
N    -4.0   -7.3    2.3
H    -3.1   -7.5    2.9
H    -4.0   -5.3   -5.7
P     5.2   -1.2   -6.9
P     5.2    6.6   -2.3
I    -7.5   -0.5    4.7
H     5.7    2.0    6.4
H    -0.4   -8.7   -1.5
H     7.7    0.9   -4.2
C    -7.5    4.4    1.8
I     7.5   -2.5    4.1
I     7.0    5.6    0.1
H     3.3   -3.6    7.5
H    -1.4    6.4    6.2
H     5.3   -3.9    6.2
H     2.9    3.2   -7.9
H     1.6    6.4    6.2
N    -0.5   -8.7   -2.5
P    -5.8    6.6   -2.3
I    -7.8    4.2   -2.0
P    -5.8   -1.2   -6.9
I    -0.5   -8.7    2.5
H    -4.0   -8.0    1.6
I     3.5    8.4   -0.4
I    -0.0    3.2    8.6
C     3.1    4.2   -7.5
H    -5.1    0.8    7.6
N     6.2    1.2    6.7
H    -5.7   -3.9    6.2
H    -4.8   -7.3    2.9
H     4.3   -5.4    6.2
I     7.3   -2.8   -5.0
H     7.3   -5.2    2.6
H    -6.8   -4.3    4.8
H     8.8    1.3   -2.8
H    -7.4    5.1    2.6
N    -0.5    6.8    6.5
H    -4.3    8.3    1.1
I    -0.7    6.9   -6.5
I     6.9   -6.2   -2.0
C     7.2   -5.9    1.8
P     1.6    9.1    2.1
H    -8.5    3.0    2.9
I     7.0    4.7   -4.3
H     2.3    4.9   -7.8
P     1.6   -6.3   -6.9
I     3.3    0.5   -8.9
H    -3.4   -6.8   -5.7
H     1.6   -9.0   -2.8
H    -1.4   -9.1   -2.8
N    -8.5   -3.9   -2.3
H     5.8    0.8    7.6
N    -4.1   -6.2   -6.1
H    -8.3    4.7    1.1
I     3.8    7.8    4.1
I    -3.5   -6.6    6.2
I     3.8   -8.0    4.0
I     3.5    0.3    9.1
H    -7.1    3.5   -5.7
I     3.6    7.6   -5.0
P    -9.4    1.4   -2.4
H    -3.3    8.6    3.3
I     3.8   -7.6   -4.9
H     9.7   -0.4    1.2
H    -9.0   -3.1   -2.6
C    -6.6   -4.3    5.9
H    -0.4    7.8    6.2
H    -8.9   -4.3   -1.4
P     8.9   -3.8   -2.3
C     0.6   -9.5   -3.1
I    -4.3   -2.8    8.6
I    -0.2    3.3   -9.4
H     4.1    4.6   -7.9
P     8.9    4.0    2.1
H     6.1   -7.3    2.9
H    -5.0   -6.6   -5.7
I    -3.6    9.0   -2.8
I    -0.6   -4.9   -8.8
H     8.1   -5.9    1.2
H    -0.4    6.7    7.5
I    -7.2    3.7    6.2
H    -7.7   -2.6    6.2
H    -0.9   -0.5   10.1
H     8.1    1.9    5.9
H    -3.2    9.7    1.1
H    -8.6   -4.6   -3.0
H     0.9   -0.8   10.2
C    -4.1    9.3    1.4
H    -3.2   -5.8   -7.9
H     0.5   -9.4   -4.2
H     9.7   -1.5    3.3
I     7.4    1.2   -7.2
N     7.0   -7.3    2.3
H     0.8   -8.5    5.9
C     7.7    1.5    6.9
H     7.0   -5.3   -5.7
I    -0.4   -5.0    9.2
I    10.2    2.4   -0.4
N    -4.1    9.2    2.9
H   -10.4   -0.7    1.1
H     6.0   -6.6   -5.7
I    -0.5   10.5    0.2
C    -4.2   -6.1   -7.5
I     7.7    5.5    4.7
H    -3.3    8.0   -6.1
H    -6.7   -5.4    6.2
H    10.4   -2.0    1.1
H    -1.6   -8.3    6.4
P     5.3   -8.9   -2.4
H     6.7    8.3    1.1
H     6.9   -8.0    1.6
H    -5.0    8.9    3.3
C    10.5   -1.0    1.4
N    -7.8    4.1   -6.1
N    -7.7   -3.6    6.5
P     5.3    6.5    6.6
I    -4.5   -2.7   -9.4
H    -5.0   -5.5   -7.8
H    -7.7    5.1   -5.7
C    -0.0   -0.8   10.8
P    -5.7   -8.9   -2.4
I    -8.0   -3.5   -6.5
H     0.5  -10.5   -2.8
P    -5.6    6.5    6.6
I    -0.2    9.8    4.7
I    -4.1  -10.1    0.2
H    -0.3   -2.9   10.5
H     8.2    0.6    7.2
H     3.1    3.1   10.0
H     2.5  -10.7    1.2
N    10.6   -1.1    2.9
I    -0.5   -0.9  -11.0
N     6.9   -6.2   -6.1
H    -8.7    3.8   -5.7
H     0.5   -8.0    7.6
H    -3.4    2.4  -10.3
H     7.8    2.3    7.6
H    -4.9   10.0    1.2
H     6.0    8.9    3.3
C     0.4   -8.8    6.9
H    -3.0    0.7  -10.8
I    -4.3    5.4   -8.8
I     6.7   -2.8    8.6
H   -10.6   -1.7    3.3
H     9.4    6.1   -1.4
H    10.7   -0.2    3.3
H     7.8   -7.5    2.9
I    -7.5    8.4   -0.4
I    -8.0   -7.9   -0.4
I    -3.3   -9.9   -4.3
H     6.0   -5.5   -7.8
H     4.1   10.2   -2.8
H    -7.6   -3.6    7.5
I    -4.1    5.3    9.2
I   -10.9   -1.4   -2.8
H    -8.6   -4.0    6.2
I    -7.2    7.8    4.1
I    -3.4    1.1   10.8
N    -1.0   -9.1    6.7
H    -5.0    8.2   -6.1
N    -4.1    8.3   -6.7
H    -3.9   10.2    3.3
H    -4.2    7.6   -7.4
H    -6.9    4.6   -7.9
H     3.1   -3.5  -10.4
I    -7.2   -8.0    4.0
H     2.5    4.7   10.1
I    11.0   -1.4   -2.8
P    -9.3   -6.4    2.1
P     1.5    1.5  -11.3
P    -9.3    1.3    6.7
N    -0.2   -2.2   11.3
C   -11.4   -1.0    1.4
H    -4.3   -7.2   -7.9
H     3.5  -10.5    3.3
P     1.5    9.2   -6.9
I    -7.2   -7.6   -4.9
H    -1.2   -9.9    6.0
H    11.5   -0.7    1.1
H     9.6    5.7   -3.0
I     0.3   10.8   -4.3
H     0.0   -0.1   11.6
I     0.1   -9.1   -7.2
H     9.7   -2.1   -6.1
C     6.8    9.3    1.4
I    -7.3    7.6   -5.0
C    -7.9    4.2   -7.5
C     3.3    4.1   10.4
H   -11.2   -0.2    3.3
H     6.0   10.0    1.2
H     7.6   -6.8   -5.7
H    -5.3    1.0  -10.4
I     3.7   -7.1    8.6
I     7.5   -6.6    6.2
I     6.5   -2.7   -9.4
H    -8.0    3.2   -7.9
C    -3.5    1.6  -11.1
I    -7.5    0.3    9.1
I    -7.7    0.5   -8.9
I    10.7   -4.8    0.1
N   -11.3   -1.1    2.9
I     3.0    7.5    8.6
H     4.3    4.4   10.1
H   -11.6   -2.0    1.1
P     9.0   -3.8    6.6
I   -10.9    2.3    4.0
H     4.2  -11.0    1.1
H     6.0    8.2   -6.1
H     5.6    1.0  -10.4
P    -1.9    3.9   11.1
H   -10.2    5.8   -1.8
C     6.8   -6.1   -7.5
N     6.9    9.2    2.9
P    -1.9  -11.6    2.1
N     9.8    6.4   -2.3
I     7.3    9.0   -2.8
C     3.3  -11.4    1.4
H    11.3   -1.7    3.3
P     8.9    4.0   -6.9
H     7.6    8.6    3.3
I   -11.7    2.4   -0.4
I    11.1    2.3    4.0
H     9.2    7.3   -2.6
H    -3.0   -5.9   10.1
P    -2.1   -3.7  -11.4
H     2.2   11.6   -2.8
H     0.9   -9.7    7.2
H    -1.1   -2.2   11.9
H     0.6   -2.4   11.9
I   -11.2   -4.8    0.1
P    -2.1   11.8   -2.4
I     6.9  -10.1    0.2
H    -1.4   -9.5    7.6
I     3.5   -7.0   -9.4
I    -0.1  -12.2   -0.4
I   -10.9    2.7   -4.9
H   -12.2   -0.4    1.2
N     3.3  -11.4    2.9
I    -4.0    9.3    7.0
I     6.7    5.4   -8.8
N     3.0   -3.5  -11.5
C     4.2   11.2   -3.1
N    -4.9    1.3  -11.3
I    11.0    2.7   -4.9
I    -3.8  -10.8    4.7
H   -10.6   -2.3   -6.1
P     5.4   -1.3   11.1
P     5.4   -9.0    6.7
I     2.8    7.6   -9.4
H     3.1   -2.5  -11.8
H     3.2   12.0   -1.5
I   -10.5   -4.8    4.7
I     3.2   -3.6   11.5
H     7.8    9.7    1.1
H     2.4  -11.8    3.3
P    -5.6   -1.3   11.1
H    -0.6    6.8  -10.4
H     7.8   -5.8   -7.9
P    -5.6   -9.0    6.7
H    -4.8   -5.6   10.1
H    10.8    0.0   -6.4
H     2.1   -3.8  -11.8
H     6.6   -7.2   -7.9
H     2.4   10.8    6.0
H    -6.9   10.2   -2.8
H    -3.1    2.0  -12.1
H     6.8    7.6   -7.4
H     3.5  -10.3   -6.4
I     3.8  -11.7   -2.8
I     3.0   12.0    2.5
H     9.9   -0.4   -7.8
N     3.1   12.0   -2.5
