         400
 sphere cut out from bulk 
I     1.5   -1.4   -0.2
H    -0.3    0.7    2.2
H    -1.2    1.2   -1.7
I    -2.9   -0.7    0.0
C    -0.8    1.1   -2.7
H     0.2    1.3   -2.8
H    -1.0    0.0   -3.0
I     0.9    3.1    0.0
C    -0.8    1.4    2.8
H    -1.5    2.0    2.3
P    -1.0   -3.3    0.0
P     3.5    1.3    0.0
H    -0.0    2.1    3.2
H     2.4   -2.3   -2.4
H    -2.2    0.1    3.6
N    -1.5    0.7    3.9
N    -1.6    1.9   -3.7
H    -0.8    0.2    4.5
H    -1.5    2.9   -3.4
H    -2.6    1.7   -3.6
I    -1.3   -3.3    3.2
I     3.5    0.9    3.2
I    -1.2   -3.4   -3.2
H     2.0   -3.4    2.9
H     3.8   -1.9    2.5
N     3.0   -2.4   -3.2
I     3.7    1.2   -3.2
H     3.6   -1.5   -3.2
H    -1.2    1.8   -4.6
H    -1.9    1.4    4.6
I    -3.6    3.8    0.1
H     2.4   -2.3   -4.1
H     4.1   -3.3    1.7
N     4.0   -2.9    2.7
P    -5.5    1.3    0.0
C     2.9   -3.5    3.5
P    -1.0    5.7    0.0
I     0.9   -5.8    0.0
H    -4.0   -3.0    3.2
H    -5.1   -1.9    2.5
I     6.0   -0.7    0.0
H     2.9   -3.0    4.4
H     4.4   -3.5   -2.2
H    -4.8   -3.3    1.7
C     3.8   -3.6   -3.2
H    -4.5   -3.5   -2.2
N    -4.9   -2.9    2.7
I    -3.7   -5.1    0.1
I    -5.3    1.2   -3.2
H     3.2   -4.5   -3.1
H     3.2    4.5   -3.1
I    -5.5    0.9    3.2
H    -5.4   -1.5   -3.2
I     0.6   -0.8    6.4
H     3.2    4.4    3.6
I    -1.1    5.6   -3.2
I     5.3    3.8    0.1
H     4.9   -3.0    3.2
H     2.0    5.5    2.9
H     3.2   -4.6    3.6
I    -1.2    5.6    3.2
I     1.6   -1.5   -6.4
C    -5.1   -3.6   -3.2
H    -4.5   -3.6   -4.0
H     4.5   -3.6   -4.0
H    -1.5   -6.0   -3.4
C     3.0    5.4    3.5
I     0.7    3.0   -6.4
N    -5.9   -2.4   -3.2
I    -2.9   -0.6   -6.5
H     4.2    5.6    1.7
P     3.3    1.0    6.4
P    -1.1   -3.2   -6.5
I     5.2   -5.1    0.1
C     3.9    5.4   -3.2
H    -6.6   -2.3   -2.4
H    -4.4    5.4   -2.2
H     4.5    5.4   -2.2
P     3.4    1.2   -6.5
P    -1.2   -3.5    6.4
H    -1.6   -6.9    2.3
H     2.4    6.7   -2.4
I     1.5    3.6    6.4
H     6.3    1.7   -3.6
I    -7.4   -1.4   -0.2
H    -0.1   -6.8    3.2
H    -4.8    5.6    1.7
H     6.7    0.1    3.6
I    -2.9    2.8    6.5
I     1.6    7.6   -0.2
I    -3.9   -1.7    6.5
N     4.1    6.1    2.7
C    -6.0   -3.5    3.5
H    -4.0    6.0    3.2
H    -5.7    4.5   -3.1
H    -5.8   -4.5   -3.1
N     3.0    6.6   -3.2
H     2.9    5.9    4.4
H    -1.3   -7.7   -1.7
H     7.4    2.0    2.3
H     7.7    1.2   -1.7
H    -4.4    5.3   -4.0
C    -5.1    5.4   -3.2
H    -6.5   -2.3   -4.1
H    -5.7    4.4    3.6
C    -0.8   -7.5    2.8
N    -1.6   -7.0   -3.7
H     4.5    5.3   -4.0
H    -6.1   -3.0    4.4
H     0.2   -7.6   -2.8
H     2.5    6.6   -4.1
H    -5.8   -4.6    3.6
N    -4.9    6.1    2.7
H    -6.9   -3.4    2.9
C    -0.9   -7.9   -2.7
H     5.0    6.0    3.2
P     3.4   -7.7    0.0
I     5.1   -1.7    6.5
N     7.3    1.9   -3.7
I     1.4   -5.3    6.4
N     7.4    0.7    3.9
H     3.9    7.1    2.5
H     7.9    0.0   -3.0
I    -3.7    3.9   -6.5
H     7.0    1.4    4.6
H    -2.7   -7.2   -3.6
P    -1.1    5.5    6.4
H    -0.4   -8.2    2.2
P     7.9   -3.3    0.0
H    -1.3   -7.1   -4.6
C     8.1    1.1   -2.7
P    -5.6    1.2   -6.5
I    -8.0    3.1    0.0
P    -5.7    1.0    6.4
P    -1.1    5.7   -6.5
C     8.1    1.4    2.8
H     7.5    2.9   -3.4
I    -2.9    8.3    0.0
H    -1.5    1.7   -8.4
I     0.7   -5.9   -6.4
C    -6.0    5.4    3.5
I     6.0   -0.6   -6.5
H    -0.0    0.6    8.9
H     3.6    7.4   -3.2
H     8.6    0.7    2.2
I     7.7   -3.3    3.2
H    -2.0   -7.5    4.6
I     7.8   -3.4   -3.2
I    -3.8   -5.0   -6.5
H    -5.1    7.1    2.5
I     3.6   -7.7   -3.2
H     2.6   -2.8   -8.3
H     7.7    1.8   -4.6
I     5.2    3.9   -6.5
N    -1.5   -8.2    3.9
H    -8.7    1.3   -2.8
H    -2.1    1.9    8.8
I     6.0    2.8    6.5
H     8.1    0.2    4.5
H     3.1   -2.9    8.3
H    -6.9    5.5    2.9
I     3.4   -8.1    3.2
H    -1.2    0.1   -9.3
N    -5.9    6.6   -3.2
I    -3.0   -6.2    6.5
P    -5.5   -7.7    0.0
H    -1.1   -8.9   -3.0
H    -1.0    9.0   -3.0
H    -6.0    5.9    4.4
H    -9.3    0.7    2.2
C    -1.4    1.2   -9.4
H    -6.5    6.7   -2.4
H     9.2    1.3   -2.8
H     8.9    2.1    3.2
H    -5.3    7.4   -3.2
I     5.1   -5.0   -6.5
P     7.9    5.7    0.0
C    -0.7    0.6    9.7
H    -9.0    2.1    3.2
H    -2.3   -8.8    3.6
I    -7.4   -1.5   -6.4
H    -1.3   -0.2    9.8
H    -0.3    9.6    2.2
H    -0.9   -8.8    4.5
H     1.8   -3.0    9.3
H     0.6    1.8   -9.7
I    -5.3   -7.7   -3.2
N    -1.5    1.9    9.7
I    -8.1   -5.8    0.0
I     1.6    7.5   -6.4
H    -2.2    9.0    3.6
H     3.7   -4.0   -8.4
N     2.8   -2.8    9.2
I    -3.0   -9.6    0.0
H    -0.9    2.7    9.6
N     3.0   -3.5   -9.0
H     2.9   -1.8    9.5
I     7.7    5.6    3.2
H    -6.5    6.6   -4.1
I     7.8    5.6   -3.2
H     7.4   -6.0   -3.4
C    -9.8    1.1   -2.7
H    -0.8    9.1    4.5
I     3.2    0.8    9.7
H     6.3   -7.2   -3.6
C    -9.7    1.4    2.8
I     6.1    8.3    0.0
I    -0.9   -3.3   -9.7
I    -5.5   -8.1    3.2
I     3.3    1.4   -9.6
I    -0.9   -3.5    9.6
I     9.8    3.1    0.0
H    -2.4    1.3  -10.0
H     7.3   -6.9    2.3
I     0.7    8.1    6.4
H   -10.2    1.2   -1.7
N    -0.4    1.8  -10.2
C    -0.8   10.0   -2.7
H    -1.2   10.2   -1.7
H   -10.0    0.0   -3.0
H     3.7    4.9   -8.4
I     1.5  -10.3   -0.2
I    -3.8    7.2    6.5
H     2.3   -4.1   -9.3
I    -7.5    3.6    6.4
I    -8.3   -0.8    6.4
P   -10.0   -3.3    0.0
H    -5.8   -2.9    8.3
N    -1.5    9.7    3.9
I    -7.4    7.6   -0.2
I    10.5   -1.4   -0.2
P     3.3   -7.7   -6.5
H     0.3   10.2   -2.8
P     7.8   -3.2   -6.5
H     2.6    6.1   -8.3
P     7.7   -3.5    6.4
H    -0.1    0.7   10.6
H    -5.2   -4.0   -8.4
P     3.2   -7.9    6.4
H     3.2    6.0    8.3
H    -0.6    2.9  -10.3
H     2.3    4.8   -9.3
H    -9.8    0.2    4.5
N     7.3   -7.0   -3.7
I     6.0   -6.2    6.5
P     3.5   10.2    0.0
C    -0.8   10.4    2.8
H    -6.4   -2.8   -8.3
H    -4.5   -2.1   -9.6
H     4.5   -2.1   -9.6
I    -8.2    3.0   -6.4
H    -2.1    2.0   10.5
H   -10.5    2.0    2.3
N     3.1    5.5   -9.0
I     3.5    9.8    3.2
I    -2.9    8.3   -6.5
I     5.1    7.2    6.5
H     7.7   -7.7   -1.7
H    -5.2    4.9   -8.4
C     3.7   -2.8  -10.1
I    -0.9    5.4    9.6
I   -10.1   -3.4   -3.2
H     1.8    5.9    9.3
N   -10.4    0.7    3.9
I    -7.5   -5.3    6.4
I    -0.9    5.6   -9.7
I   -10.2   -3.3    3.2
H     6.9   -7.5    4.6
H    -0.3    1.4  -11.1
H    -1.6   -7.2   -8.4
I    -5.7    0.8    9.7
I    -5.6    1.4   -9.6
H     3.0   -2.2  -10.6
N    -5.9   -3.5   -9.0
H     3.4    4.2    9.9
I     3.7   10.2   -3.2
H    -1.5   11.0    2.3
H     6.8    1.9    8.8
N   -10.5    1.9   -3.7
H   -10.4    2.9   -3.4
I     6.0   -9.6    0.0
H   -10.2    1.8   -4.6
H    -6.0   -1.8    9.5
H     7.4    1.7   -8.4
C     3.5   -3.7   10.2
C     8.1   -7.5    2.8
I     9.8   -5.8    0.0
H     7.6   -7.1   -4.6
P    -9.9    5.7    0.0
N    -6.2   -2.8    9.2
H     3.4   -4.7    9.9
N     2.8    6.2    9.2
H    -2.1   -7.0    8.8
H     3.5  -10.4   -3.2
H    -1.9   10.4    4.6
P     7.8    5.5    6.4
P    -5.6   -7.7   -6.5
H     0.0   11.0    3.2
H    -1.0   -6.2    9.6
I     9.6   -0.8    6.4
H    -4.3   -3.4   10.1
H    -2.6   10.7   -3.6
P    -5.4   10.2    0.0
N    -1.5   10.9   -3.7
C     8.0   -7.9   -2.7
H     4.6   -3.4   10.1
H     6.7   -8.8    3.6
H     8.8   -6.8    3.2
P     7.8    5.7   -6.5
I     0.6   -9.8    6.4
C    -5.2   -2.8  -10.1
I    -5.4    9.8    3.2
P    -5.7   -7.9    6.4
H     2.3  -11.2   -2.4
H   -11.2    0.1    3.6
H     3.8  -10.8    2.5
N     7.4   -8.2    3.9
H    -5.8    6.0    8.3
H    -1.2   10.8   -4.6
H    -9.0   -6.8    3.2
H    11.3   -2.3   -2.4
H    10.9   -3.4    2.9
H     6.8    9.0    3.6
I   -11.8   -0.7    0.0
I    -5.2   10.2   -3.2
H   -10.9    1.4    4.6
I    -3.0   -9.5   -6.5
I   -10.1    5.6   -3.2
I     9.6    3.0   -6.4
H    -8.8   -7.6   -2.8
H     6.5    1.3  -10.0
C     3.6    5.3   10.2
N    -5.9    5.5   -9.0
H    -0.6   -6.1  -10.3
I    -8.3   -5.9   -6.4
H     4.2   -3.5  -10.7
I   -10.2    5.6    3.2
N    -1.6   -7.1    9.7
H     8.6   -8.2    2.2
H    -7.2   -3.0    9.3
H     7.7    0.1   -9.3
C     7.5    1.2   -9.4
C    -5.4   -3.7   10.2
I     0.9   12.1    0.0
H    -6.3    6.1   -8.3
H    -5.5    4.2    9.9
H     0.5   -7.2   -9.7
N     3.0  -11.3   -3.2
H     3.2   -3.5   11.2
H    -0.1   -8.3    8.9
H    -6.6   -4.1   -9.3
I     6.0    8.3   -6.5
H    -5.4  -10.4   -3.2
H     9.1   -7.6   -2.8
H     2.4  -11.3   -4.1
H   -11.5    1.7   -3.6
H    -5.2  -10.8    2.5
H    -4.8   -3.5  -10.7
H     3.0    7.2    9.5
I    -7.3    7.5   -6.4
P    -1.1  -12.2    0.0
H     7.9   -8.9   -3.0
C    -1.5   -7.7   -9.4
H    11.4   -2.3   -4.1
H    -5.6   -4.7    9.9
I     1.5  -10.4   -6.4
H    -4.3    5.5   10.1
P     3.3   10.0    6.4
N     7.4    1.9    9.7
H     8.0    9.0   -3.0
H     7.6   -0.2    9.8
I    10.5   -1.5   -6.4
H    -6.0   -2.2  -10.6
C     3.8    6.2  -10.1
H    -6.6    4.8   -9.3
P   -10.1   -3.2   -6.5
H     4.6    5.5   10.1
H    -1.4   11.9   -3.4
N    -0.4   -7.1  -10.2
P    12.4    1.3    0.0
P   -10.1   -3.5    6.4
H   -10.4   -6.0   -3.4
P     3.4   10.2   -6.5
H     8.9    0.6    8.9
N    11.9   -2.4   -3.2
H    -4.4    6.8   -9.6
H    -9.0    0.6    8.9
H    11.0    5.5    2.9
H    -9.3   -8.2    2.2
C    -9.8   -7.5    2.8
H     4.5    6.8   -9.6
I     3.3   -7.5   -9.6
C    -5.4    5.3   10.2
H     6.8    2.0   10.5
N    -6.1    6.2    9.2
I    -7.4  -10.3   -0.2
H     4.2    5.4  -10.7
I    -1.3  -12.2    3.2
H     8.1   -8.8    4.5
N     4.0  -11.8    2.7
