         400
 sphere cut out from bulk 
I    -1.0    0.2    0.9
H     0.5   -1.5   -0.9
C     1.4   -1.8   -1.3
H     2.2   -1.1   -1.1
H     1.2   -0.2    2.6
P    -0.9    2.9   -0.7
H     1.7   -2.8   -0.8
I     0.5    1.4   -3.2
H     1.1   -1.1   -3.2
N     1.3   -2.0   -2.7
H    -3.0   -0.2    2.4
N     1.4   -0.6    3.6
H     0.5   -2.6   -2.9
I     4.0    0.1    0.7
H     0.6   -2.5    3.2
H     0.6   -0.3    4.2
H     2.4   -2.3    2.9
C     1.6   -2.1    3.5
I     1.7    4.1    0.4
H     2.1   -2.5   -3.1
H     2.3   -0.2    4.0
H    -3.5   -2.4    1.8
N    -3.9   -0.6    2.8
H    -2.9   -2.3    3.5
C    -3.7   -2.1    2.8
H    -4.7   -0.3    2.2
H    -3.2   -2.5   -3.3
P     4.3    2.9   -0.7
H    -4.2   -1.1   -3.2
I    -3.6    4.0    0.4
I    -1.4   -4.2   -3.2
H     1.8   -2.4    4.6
I     1.5   -5.3    0.4
H    -4.1   -0.2    3.7
N    -4.0   -2.0   -3.7
I    -1.3    0.1    5.7
I    -4.8    1.4   -3.2
I    -1.2    5.1   -3.2
H    -4.7   -2.5    3.2
H    -3.1   -1.1   -5.3
H     5.9   -0.3    2.2
I    -3.7   -5.1    0.4
P    -1.0    2.9   -5.7
H    -4.8   -2.6   -3.5
P    -1.1   -6.4   -0.7
I     3.9   -4.2   -3.2
I    -6.6    0.1    0.7
C    -3.9   -1.8   -5.1
I     5.8    1.4   -3.2
P    -6.3    2.9   -0.7
I     4.3    0.2    5.5
H     5.9   -2.5    3.2
H    -3.6   -2.8   -5.6
H     5.7   -2.6   -3.5
I    -1.3    0.1   -7.1
I     4.1    5.1   -3.2
H     6.4   -1.1   -3.2
N     6.7   -0.6    2.8
H     1.9    6.8    1.8
I     1.7    4.0    6.0
H    -3.5    6.5   -0.8
H    -4.8   -1.5   -5.5
H     6.5   -0.2    3.7
H     0.8    6.7    3.2
H     0.6    6.6   -3.5
P     4.3   -6.3   -0.7
H     7.1   -2.4    1.8
C     6.8   -2.1    2.8
P    -1.0    2.9    7.1
N     6.6   -2.0   -3.7
P     4.4    2.9   -5.7
H     2.3    6.8   -3.3
C     1.7    7.2    2.8
H     7.6   -0.2    2.4
H    -2.8    6.9    2.9
I     1.6   -5.1    6.0
I     7.0    4.0    0.4
I     1.7    4.0   -6.8
H    -3.0    6.8   -3.1
I    -3.6    4.1    6.0
H     5.7   -1.5   -5.5
H     2.5    6.9    3.5
H    -3.1   -1.1    7.5
N     1.4    7.3   -3.7
I    -6.3    0.2    5.5
C    -3.7    7.5   -1.3
H     7.4   -2.5   -3.3
I     4.3    0.2   -7.3
I    -6.7   -4.2   -3.2
I     0.3   -7.9   -3.2
H    -3.6   -2.8    7.2
H    -8.4   -1.1   -1.1
I     6.9   -5.1    0.4
H     0.6   -0.3   -8.6
P    -1.0   -6.3   -5.7
C     6.7   -1.8   -5.1
H    -4.7    6.6   -2.9
N    -3.9    7.3   -2.7
I     1.6   -5.1   -6.8
H    -4.5    6.7    3.2
I    -3.6    4.1   -6.8
H     1.8    6.5   -5.6
H     7.7   -2.3    3.5
H     1.8   -2.4   -8.2
C    -3.6    7.2    3.5
C    -3.9   -1.8    7.7
H    -3.0    8.2   -1.1
I    -3.8   -5.3    6.0
P     4.4    2.9    7.1
H    -4.8   -1.5    7.3
I    -6.5    5.1   -3.2
H    -3.4    6.8    4.6
H     1.2    8.2   -3.2
P    -6.2    2.9   -5.7
P    -6.3   -6.3   -0.7
H    -8.2   -2.3    2.9
H     2.3   -0.2   -8.8
H    -4.7    7.8   -0.9
C     1.6    7.5   -5.1
H    -8.3   -0.2    4.0
H     0.8    8.9    2.2
N     1.6    8.6    2.8
H     7.5   -1.1   -5.3
I    -1.5   -9.1    0.7
N     1.4   -0.6   -9.2
H     7.0   -2.8   -5.6
H    -8.5   -2.5   -3.1
H     5.9    6.6   -2.9
H    -8.9   -2.8   -0.8
H     5.7   -1.5    7.3
I    -3.8   -5.3   -6.8
C    -9.2   -1.8   -1.3
I    -1.2    9.4    0.7
P     4.2   -6.4   -5.7
P    -1.0   -6.3    7.1
H     0.6    7.8   -5.5
C     1.6   -2.1   -9.2
H     6.1    6.7    3.2
I    -6.3    0.2   -7.3
I     9.6    0.2    0.9
H     7.1    6.5   -0.8
H    -4.0    8.2   -3.2
I     0.5    1.4    9.6
H     2.4    9.1    2.4
H     1.1   -1.1    9.6
H    -9.4   -0.2    2.6
I    -8.9    4.1    0.4
H     5.9    7.8   -0.9
P    -6.2    2.9    7.1
H     0.5   -9.6    2.2
I    -5.0   -7.9   -3.2
H     1.8    6.5    7.2
N    -9.2   -0.6    3.6
H     1.3    9.0    3.7
N    -9.3   -2.0   -2.7
C    -9.0   -2.1    3.5
H    -4.1   -0.2   -9.0
H     0.6   -2.5   -9.6
H     2.1   -9.4    2.4
I     4.2   -9.0    0.9
H    -2.9   -2.3   -9.3
H     2.3    8.2   -5.3
H    -9.5   -1.1   -3.2
I     7.0    4.1    6.0
N    -3.7    8.6    3.6
P     9.7    2.9   -0.7
N    -4.0   -2.0    9.1
C     6.8    7.5   -1.3
H     0.5   -2.6    9.8
I     5.6   -7.9   -3.2
H     2.1   -2.5    9.7
H     1.2   -0.2  -10.1
H    -8.8   -2.4    4.6
H    -4.0    9.0    2.6
H     1.0   -9.5    3.7
N     6.7    7.3   -2.7
H   -10.1   -1.5   -0.9
H    -3.2   -2.5    9.5
H    -2.9    9.1    4.0
N     1.3   -2.0   10.0
N     1.3   -9.9    2.8
C     6.7   -1.8    7.7
H     7.0   -2.8    7.2
P     4.2   -6.4    7.1
H     2.4   -2.3   -9.9
I    -9.1   -5.3    0.4
H    -4.2   -1.1    9.6
I     6.8   -5.3    6.0
I     4.4    9.5    0.9
I    -1.4   -4.2    9.6
I     7.0    4.1   -6.8
I    -1.1   -9.0    5.5
I     9.2   -4.2   -3.2
C     7.0    7.2    3.5
H     7.6    6.8   -3.1
H     7.5   -1.1    7.5
P    -6.4   -6.4   -5.7
H     0.6    7.8    7.3
I   -10.1    1.4   -3.2
H    -3.2   -9.4    4.0
H    -4.2   -9.5    2.6
N    -3.9   -0.6  -10.0
H   -10.0   -2.5    3.2
H    -3.0   -0.2  -10.3
C     1.6    7.5    7.7
I    -4.8    1.4    9.6
C    -3.7   -2.1   -9.9
H     7.8    6.9    2.9
H    -4.8   -2.6    9.3
H   -10.0   -0.3    4.2
H     1.0  -10.3   -3.2
H    -4.5    8.9    4.2
H   -10.1   -2.6   -2.9
H    -3.2  -10.3   -1.1
I     9.3    0.1    5.7
I    -1.2    5.1    9.6
H     7.2    6.8    4.6
H    -4.7   -2.5   -9.6
H     6.5    8.2   -3.2
I     6.8   -5.3   -6.8
I    -0.8    9.5    5.5
I     9.4    5.1   -3.2
I    -6.4   -9.0    0.9
I     0.6   10.6   -3.2
H     6.5   -0.2   -9.0
H    11.0   -1.5   -0.9
I     3.9   -4.2    9.6
H    -8.7    6.8    1.8
H    -8.1    6.9    3.5
H    -3.4    6.8   -8.2
H    -8.3    6.8   -3.3
N    -4.0   -9.9    3.6
H     7.6    8.2   -1.1
H     5.7   -2.6    9.3
I     5.8    1.4    9.6
H     2.3    8.2    7.5
I    -6.1    9.5    0.9
N     6.6   -2.0    9.1
I     3.8   -9.1    5.7
I    -8.9    4.0    6.0
P     9.5   -6.4   -0.7
H     0.6    6.6    9.3
P     9.6    2.9   -5.7
P    -6.4   -6.4    7.1
H     6.6    9.0    2.6
H     5.9   -2.5   -9.6
H    -4.8   -9.6    4.2
H     6.4   -1.1    9.6
I     4.1    5.1    9.6
H     6.1    8.9    4.2
I    11.1    1.4   -3.2
N     6.8    8.6    3.6
H    -4.7   -0.3  -10.6
I   -11.6    0.2    0.9
H    -4.3  -10.3   -3.2
I    -1.1   -9.0   -7.3
I     9.3    0.1   -7.1
H     6.3   -9.5    2.6
H    11.0   -2.6   -2.9
I     4.1    9.4    5.7
H     0.8    6.7   -9.6
C     1.4   -1.8   11.5
N     1.4    7.3    9.1
H    -3.5   -2.4  -10.9
C    -8.9    7.2    2.8
C     1.4  -11.3    2.8
H     2.0  -10.3   -5.3
H     2.5    6.9   -9.3
C    -4.0  -11.1   -1.3
H    -5.0  -10.7   -0.9
P   -11.5    2.9   -0.7
N     1.1  -11.2   -3.7
I    -8.9    4.0   -6.8
H     2.3    6.8    9.5
H    11.2   -2.5    3.2
I    -1.0    0.2  -11.9
H     2.2   -1.1   11.7
H     1.6  -11.7    1.8
H     5.8   -9.6    4.2
I    -9.0   -5.1    6.0
H    11.2   -0.3    4.2
I    -0.8    9.5   -7.3
H     0.5   -1.5   11.9
N     6.7   -0.6  -10.0
I    -4.7   10.6   -3.2
H     0.3  -10.7   -5.5
H    11.8   -0.2    2.6
H     5.6  -10.7   -0.9
H    -8.3   -0.2   -8.8
H     5.9   -0.3  -10.6
H    11.7   -1.1   -3.2
P    -0.8   12.1   -0.7
I     3.8   -9.1   -7.1
C    12.0   -1.8   -1.3
H    -3.0    6.8    9.7
H     0.5  -11.8    3.2
C    -3.6    7.2   -9.2
C     6.8   -2.1   -9.9
H     7.7   -2.3   -9.3
H    -8.8    6.5   -5.6
C     1.3  -11.1   -5.1
N    -9.2    7.3   -3.7
H     7.4   -2.5    9.5
N    -4.2  -11.2   -2.7
H    -8.8   -2.4   -8.2
P     9.6    2.9    7.1
H     2.2  -11.6    3.5
N    11.9   -2.0   -2.7
H     2.0  -11.7   -3.3
H    -3.1  -11.6    2.9
H    -9.8    6.7    3.2
H     0.3  -11.9   -3.5
C     1.7    7.2   -9.9
N     6.6   -9.9    3.6
H     1.7   -2.8   12.0
H    -2.8    6.9   -9.9
I    -6.7   -4.2    9.6
I     0.3   -7.9    9.6
I    -9.0   -5.1   -6.8
H    -8.2    9.1    2.4
H     6.3  -10.3   -3.2
I     4.1    9.4   -7.1
P    -0.9    2.9   12.1
H   -10.0    6.6   -3.5
C    -3.9  -11.3    3.5
N    12.0   -0.6    3.6
H     7.7    9.1    4.0
H    -3.3  -11.7   -3.1
I     5.9   10.6   -3.2
H    -4.5    6.7   -9.6
H    12.3   -2.8   -0.8
H    -3.8  -12.0   -0.8
H     7.4   -9.4    4.0
I    -6.5    5.1    9.6
H     1.2    8.2    9.6
I    -6.7   -9.1    5.7
H     7.3  -10.3   -1.1
I     4.0    0.1  -12.1
I    -6.5    9.4    5.7
H    -4.7    6.6    9.8
H    -8.3    8.2   -5.3
C    -9.0    7.5   -5.1
P     9.6   -6.3   -5.7
C    12.1   -2.1    3.5
N    -9.0    8.6    2.8
H     7.6   -0.2  -10.3
H    -9.3    8.2   -3.2
H     1.3    9.0   -9.0
H    12.8   -1.1   -1.1
H     7.2    6.8   -8.2
H    -8.5   -9.4    2.4
H     2.0  -10.3    7.5
C     6.6  -11.1   -1.3
I     9.1   -9.1    0.7
H     0.3  -10.7    7.3
I    12.3    4.1    0.4
H    -2.9    9.1   -8.8
N    -3.9    7.3   10.0
P     4.5   12.2   -0.7
N    -9.2   -0.6   -9.2
H     1.9    6.8  -10.9
H    -3.7  -11.7    4.6
H    -8.8    6.5    7.2
I   -12.0   -4.2   -3.2
H    -8.2   -2.3   -9.9
C    -9.0   -2.1   -9.2
H    -8.5   -2.5    9.7
P     4.3    2.9   12.0
H    -4.8  -11.8    3.2
H     1.0   -9.5   -9.0
I     1.7    4.1  -12.4
H   -10.0   -0.3   -8.6
H    -4.5    8.9   -8.6
N    -3.7    8.6   -9.2
P   -11.6    2.9   -5.7
I   -11.9    0.1    5.7
H     6.1    6.7   -9.6
H    -5.0  -11.9   -2.9
I    12.1   -5.3    0.4
N     6.4  -11.2   -2.7
I   -11.8    5.1   -3.2
H     7.1   -2.4  -10.9
H     5.9    6.6    9.8
H    -4.0    8.2    9.6
H    -3.2   -9.4   -8.8
N     1.6    8.6  -10.0
H    12.7   -2.5   -3.1
I     9.4    9.4    0.7
I   -10.3   -7.9   -3.2
H     1.5  -12.0   -5.6
P   -11.7   -6.4   -0.7
I     1.8   13.2    0.4
I    -5.0   -7.9    9.6
I    -6.7   -9.1   -7.1
H    12.4   -2.4    4.6
I    -6.5    9.4   -7.1
H    -9.8    8.9    2.2
H     5.6  -11.9   -2.9
P    -0.7   12.2   -5.7
H    11.2    6.6   -3.5
