         400
 sphere cut out from bulk 
H     0.3    0.2   -0.2
N     1.0   -0.2    0.4
H     0.8    0.2    1.4
H     2.0    0.2    0.2
C     1.0   -1.7    0.5
H     0.1   -2.0    0.8
H     1.2   -2.1   -0.5
I    -1.2    1.4   -1.7
H     1.8   -2.0    1.2
H    -2.7    0.7    2.2
I     0.2    1.3    3.4
I    -2.9   -2.4    0.5
P    -3.5   -0.8   -2.2
H     1.7    0.5   -3.9
I     4.1    1.3   -0.3
H     0.1    2.3   -3.9
C    -3.4    0.8    3.0
I    -1.5   -2.4   -4.0
H    -2.9    0.5    3.9
I     3.1   -2.5   -2.9
C     1.2    0.8   -4.8
H     0.3    0.2   -5.0
H    -4.3    0.2    2.8
N     0.8    2.2   -4.7
I    -5.2    1.3   -0.3
H    -3.0    2.8    3.4
N    -3.8    2.2    3.2
H    -0.2    5.5   -0.0
H    -4.3    2.6    2.3
I     3.1   -2.5    3.9
H     1.6    2.8   -4.5
H     0.8    5.4    1.4
H     4.9    0.2    2.8
P    -3.7    3.7   -2.2
H     1.6    5.5   -0.2
I    -1.5   -2.5    5.0
P     1.1   -0.8    5.7
C     0.8    5.8    0.4
H    -2.7   -5.1   -1.1
H     4.9    2.6    2.3
H     1.9    0.7   -5.6
H     0.3    2.5   -5.5
P     5.7   -0.8   -2.2
I    -3.1    5.3    0.4
P    -3.5   -4.1    3.1
I    -4.4    1.3   -4.4
P     1.1   -4.1   -4.8
H    -4.5    2.3    4.0
I     2.7    5.1   -3.0
H     4.7    2.3    4.0
H    -2.6   -5.3   -2.9
C     5.8    0.8    3.0
N     5.4    2.2    3.2
I     4.9    1.3   -4.4
C    -3.0   -5.7   -2.0
H     4.4   -4.7   -2.2
P     0.8    3.7    5.6
I     6.3   -2.4    0.5
H     1.5   -5.0    4.4
I     0.5   -6.4   -2.5
H     6.5    0.7    2.2
I    -1.8    5.3   -4.1
I    -1.3   -6.4    2.4
P     5.5    3.7   -2.2
I     2.8    5.3    3.7
H    -4.8   -4.7   -2.2
I     3.4    1.4    6.1
I    -6.1   -2.5   -2.9
H    -7.2    0.2    0.2
I    -1.9    5.1    4.8
N     0.8    7.3    0.5
H     6.3    0.5    3.9
H    -0.1   -5.2    5.3
H     4.3   -6.0   -1.2
H    -2.7   -6.7   -1.9
N    -4.5   -5.7   -2.0
H    -2.7   -2.0   -6.7
H    -3.8    0.2   -6.5
I     3.9   -6.4    1.3
H     6.2    2.8    3.4
N     4.7   -5.7   -2.0
P     5.7   -4.1    3.1
I    -6.2   -2.5    3.9
C     0.9   -5.6    5.1
I    -0.5    1.3    7.6
H     0.0    7.7    1.1
H    -7.4   -2.0    1.2
H     0.6    7.7   -0.4
H     0.8   -7.7   -0.4
H    -4.9   -6.0   -1.2
H     0.2   -7.8    1.1
H     1.7    7.7    0.9
I     1.8   -2.5   -7.4
H     1.9   -7.8    0.9
I     6.1    5.3    0.4
H     4.4   -6.2   -2.9
H    -2.6    0.2   -7.7
N    -8.2   -0.2    0.4
N     1.0   -8.2    0.5
N    -3.5   -0.2   -7.5
H    -3.3   -2.1    7.3
H    -8.0   -2.1   -0.5
H     0.9   -6.7    4.8
I    -0.5    1.4   -8.1
H    -4.9   -6.2   -2.9
I     8.1    1.4   -1.7
C    -8.2   -1.7    0.5
H     6.5   -5.1   -1.1
C    -3.5   -1.7   -7.4
I    -5.3   -6.4    1.3
P     0.9    6.8   -4.8
H    -2.6    0.2    8.0
P    -3.8    6.9    3.0
H     1.8   -4.7    6.8
H    -7.5    0.5   -3.9
H     5.4    0.2   -6.5
I    -5.8    1.4    6.1
H    -8.4    0.2    1.4
H    -4.5   -2.0   -7.1
C     6.2   -5.7   -2.0
H    -4.2    0.2    7.6
N     1.7   -5.6    6.4
H     4.7   -2.0   -7.1
I    -6.5    5.1   -3.0
I     1.8   -2.5    8.3
H    -8.9    0.2   -0.2
H     6.6   -5.3   -2.9
N    -3.6   -0.2    8.3
I     7.7   -2.4   -4.0
I     3.5   -6.4   -5.3
H     5.0    0.2    7.6
I    -6.4    5.3    3.7
H     2.6   -6.0    6.3
C    -3.5   -1.7    8.3
I    -0.5   -6.4   -6.6
H    -4.2    0.2   -8.1
H    -3.6    5.5   -6.4
H    -7.3    0.7   -5.6
P     5.4    6.9    3.0
H    -7.6    2.8   -4.5
I     1.5    5.3   -7.5
H    -3.3   -2.0   -8.4
C    -8.0    0.8   -4.8
N     5.7   -0.2   -7.5
H    -7.6    5.5   -0.2
H    -2.9    8.7   -1.9
I     0.3    9.1   -2.5
I    -4.3   -6.4    5.4
H    -9.2   -2.0    0.8
I     7.7   -2.5    5.0
I    -1.5    9.1    2.4
C     5.7   -1.7   -7.4
H     9.3   -2.0    0.8
H     1.2   -6.2    7.2
H     5.0    0.2   -8.1
H     6.5   -6.7   -1.9
H     9.6    0.2   -0.2
H     6.5   -2.0   -6.7
H     5.9   -2.1    7.3
H    -2.7   -2.0    9.0
I    -9.0    1.3    3.4
C     1.0   -9.7    0.4
I     4.9   -6.4    5.4
P    -3.6   -8.6    3.0
H    -2.9    5.5    7.6
N    -8.4    2.2   -4.7
I     3.7    9.1    1.3
P     1.1   -8.6   -4.8
I     1.5    5.3    8.3
H    -3.8    0.2    9.2
H    -4.5   -2.1    8.6
P    -8.1   -0.8    5.7
H     0.0  -10.0   -0.0
I     7.4    5.3   -4.1
N     5.7   -0.2    8.3
H     0.6    8.8    4.8
H     4.7   -2.1    8.6
H    -8.4    5.4    1.4
I    -5.7   -6.4   -5.3
H    10.0    0.2    1.4
P     1.1   -0.8  -10.0
I     9.4    1.3    3.4
I     7.3    5.1    4.8
H     5.6    5.5   -6.4
H     6.6    0.2   -7.7
H    -9.1    2.3   -3.9
H     1.8  -10.0   -0.2
C    -3.7    5.9   -7.4
C     5.7   -1.7    8.3
H    -8.9    0.2   -5.0
H    -2.9    5.5   -8.1
H     1.8   -4.7   -8.9
H     1.0  -10.1    1.4
H    -7.7   -5.0    4.4
N    10.2   -0.2    0.4
C    -8.5    5.8    0.4
H     1.9    0.7   10.1
P    -8.2   -4.1   -4.8
I     3.5    1.4   -9.6
H     4.1    9.4   -1.2
H     6.6    0.2    8.0
H     9.3    2.3   -3.9
C    10.2   -1.7    0.5
I     7.9   -6.4    2.4
C    -3.2    9.7   -2.0
H     0.3    2.5   10.2
H     5.9   -2.0   -8.4
H     9.0    5.5   -0.0
H     4.1    9.3   -2.9
I    -2.9  -10.2    0.4
H     1.2   -6.2   -8.5
I   -10.4    1.4   -1.7
H     4.5    5.6   -7.8
H     4.5    5.6    7.9
H    10.4   -2.1   -0.5
H     5.4    0.2    9.2
P     5.6   -8.6    3.0
H     0.3    0.2   10.7
H    -4.7    5.6   -7.8
H    -4.7    5.6    7.9
H    -7.3   -7.8    0.9
P    -8.4    3.7    5.6
I    -5.6    9.1    1.3
P     0.9    3.7  -10.1
H    -8.9    2.5   -5.5
H    -2.5   -7.7   -7.1
H    -2.9   10.3   -1.1
H     9.6    0.2   -5.0
C    -3.7    5.9    8.3
H    -7.6    7.7    0.9
I    -7.4   -2.5   -7.4
H    -5.1    9.4   -1.2
H    -2.7    7.7   -7.1
H    -9.4    5.5   -0.0
H     6.3    8.7   -1.9
H    -6.6   -6.0    6.3
H    -2.8   10.2   -2.9
H    -5.1    9.3   -2.9
C     5.5    5.9   -7.4
N     1.7   -5.6   -9.3
N     4.5    9.8   -2.0
I     3.3    9.0   -5.3
C     1.2    0.8   10.9
H    -4.1   -7.7   -6.7
N    -3.6    7.4   -7.4
N    -4.7    9.8   -2.0
I    -8.7   -6.4   -2.5
C     0.7    9.8    5.1
H    -7.4   -4.7    6.8
I    -1.5  -10.2   -4.1
I    -1.5   -2.5  -10.8
I    -0.5   -6.4    9.1
H    -4.3    7.8   -6.7
N    -8.5    7.3    0.5
H    11.2    0.2    0.2
I     3.0  -10.4   -3.0
H     6.5   -2.0    9.0
I    -0.7    9.1   -6.6
H    -3.6   -7.7    7.4
C    -8.3   -5.6    5.1
I     3.0  -10.2    3.7
H    11.0   -2.0    1.2
N    10.0    2.2   -4.7
N     0.8    2.2   11.0
I    -5.8    1.4   -9.6
H     6.3    5.5    7.6
H     9.6    2.5   -5.5
H    -3.6    5.5    9.3
H     4.9    7.8   -6.7
H     1.3   10.4    4.4
N    -7.5   -5.6    6.4
H    -3.8    7.8    7.4
H    -8.4   -7.7   -0.4
I    -7.4   -2.5    8.3
H     5.1   -7.7   -6.7
I    -4.5    9.0    5.4
H     2.7   -6.0   -9.4
N    -3.4   -8.1   -7.4
H    10.0    5.4    1.4
C    10.4    0.8   -4.8
C     5.5    5.9    8.3
C    10.0    5.8    0.4
H    -0.3   10.2    5.3
I     4.7    9.0    5.4
H    -8.6    7.7   -0.4
I    -1.7  -10.4    4.8
H    10.9    0.5   -3.9
I     8.7    1.3    7.6
C     6.0    9.7   -2.0
H     2.4    9.4    6.3
N    -8.2   -8.2    0.5
H    -0.0   -5.2  -10.4
H     6.3    5.5   -8.1
N    -3.6    7.4    8.3
I   -10.7   -2.4   -4.0
H     1.6    2.8   11.3
H    -8.4   -6.7    4.8
H     4.2   10.8   -2.2
P     1.0   -4.1   11.0
P    10.3   -0.8    5.7
H     0.9    9.3    7.2
H     9.2   -5.2    5.3
P    -8.3    6.8   -4.8
N     5.6    7.4   -7.4
N     1.5    9.8    6.4
H    -3.6   -7.7   -8.3
H    -2.5   -7.7    8.6
H    -2.7    7.7    8.6
H    -9.3   -5.2    5.3
I     9.7   -6.4   -2.5
I    -7.7    5.3   -7.5
H    -9.0   -7.8    1.1
H     1.7    0.5   11.8
I     6.3  -10.2    0.4
I     8.7    1.4   -8.1
C     0.9   -5.6  -10.6
H     5.4    7.8    7.4
I    -5.9    9.0   -5.3
H    -3.8    7.8   -8.3
H    -9.2    7.7    1.1
H     5.6   -7.7    7.4
P    10.3   -4.1   -4.8
H    10.8    2.8   -4.5
H     9.2    7.7    1.1
H     0.1    2.3   11.8
I    -1.5   -2.5   11.7
I   -10.8   -2.5    5.0
H    -5.1   10.8   -2.2
P    10.1    3.7    5.6
N    -3.4   -8.1    8.3
H    10.8    5.5   -0.2
I     7.7    9.1    2.4
H   -11.9    0.7    2.2
H    -2.9    0.5  -11.8
I    -4.4    1.3   11.3
H     5.6    5.5    9.3
H     6.3   10.3   -1.1
I    -1.9    5.1  -10.9
H     9.4   -7.8    1.1
I     4.8    1.3   11.3
P     0.8   11.3   -4.8
H     6.5    7.7   -7.1
H    -3.4  -10.0   -6.4
P    -3.8   11.3    3.1
I   -12.1   -2.4    0.5
H     6.4   10.2   -2.9
N    10.0    7.3    0.5
I     0.2    1.4  -12.3
N     5.8   -8.1   -7.4
I    -9.7    1.3    7.6
H    -8.0   -6.2    7.2
N     5.6    7.4    8.3
H    -7.4  -10.0   -0.2
H    -7.3    0.7   10.1
H     1.5   -5.0  -11.3
H     6.7   -7.7   -7.1
I    -7.7    5.3    8.3
I     3.1   -2.5  -11.8
P    -3.5  -11.8   -2.2
H    -7.4   -4.7   -8.9
H     9.8    7.7   -0.4
I    -6.2  -10.2    3.7
I    -6.3  -10.4   -3.0
H    11.1    0.7   -5.6
H    -4.1   -7.7    9.0
I   -10.5   -6.4    2.4
H     5.4    7.8   -8.3
H     5.6   -7.7   -8.3
C    -3.5   -9.6   -7.4
H    10.7   -5.0    4.4
H    -4.3    7.8    9.0
I     8.7   -6.4   -6.6
H     1.0    9.3   -8.5
H    10.0   -7.7   -0.4
C    10.1   -5.6    5.1
C    -8.2   -9.7    0.4
I     1.7  -10.2   -7.5
I     3.5   -6.4   10.4
I    -9.7    1.4   -8.1
H   -12.1    0.5    3.9
P    -8.1   -8.6   -4.8
H    -4.5    2.3  -11.7
H     0.9   -6.7  -10.9
H    -2.7  -10.0    7.6
H     4.9    7.8    9.0
I    -1.8    5.3   11.6
I   -11.0    5.3   -4.1
H     1.6   10.8    6.8
H     4.7    2.3  -11.7
I    -4.3   -6.4  -10.3
H     5.1   -7.7    9.0
P     0.9    6.8   10.9
I    -0.7    9.1    9.1
I    12.3   -2.5   -2.9
P   -12.7   -0.8   -2.2
P    -8.1   -0.8  -10.0
I    -8.9    9.1   -2.5
H    -6.6   -6.0   -9.4
P     5.5   11.3    3.1
N     5.8   -8.1    8.3
