         400
 sphere cut out from bulk 
H     0.6    0.3   -0.4
C     0.3    1.3   -0.1
H     0.2    1.4    1.0
H    -1.7    0.8   -0.4
N    -1.0    1.5   -0.7
H     1.0    2.1   -0.5
H    -1.0    1.5   -1.8
H     0.5   -2.4    0.6
H    -1.2   -2.3    0.8
H    -1.4    2.5   -0.5
N    -0.3   -2.9    0.9
I     2.8   -1.7   -0.2
I    -3.3   -0.9    0.4
H    -0.2   -3.1    1.9
I     1.5    0.5    3.6
H    -0.7   -3.9   -0.9
C    -0.5   -4.1    0.1
I    -0.6    1.5   -4.1
H     2.2    2.6   -3.1
I     3.7    2.8    0.4
H     0.3   -4.8    0.3
H    -0.4    4.0    2.7
P     4.4    0.2    2.1
H    -1.4   -4.6    0.5
I    -2.1   -3.0   -3.5
I    -2.0    4.7    0.3
H     0.9    2.7    4.3
H     3.7    3.1   -2.3
H    -1.4    3.4    4.0
C     3.0    3.3   -3.2
C    -0.6    4.1    3.8
I     0.1   -4.0    4.2
N     0.6    3.7    4.6
H     2.7    4.3   -3.2
P    -5.0   -2.6   -2.0
I    -4.2    2.4    3.7
P     5.2   -2.6   -2.0
P    -2.2   -0.8   -5.7
P    -5.8    0.2    2.1
H     1.4    4.3    4.3
P     1.7   -1.7    5.9
H     4.1    2.0   -4.4
H    -0.9    5.1    4.0
N     3.8    3.0   -4.4
H    -2.7   -4.9    3.5
I    -5.1   -0.2   -4.2
I     5.1   -0.2   -4.2
I     4.6   -2.2    4.3
H     0.4    3.7    5.6
I    -4.3   -5.3   -0.2
H    -0.2   -6.3   -2.7
H    -1.5   -5.2   -4.3
H     3.2    3.2   -5.3
I     0.3    6.0   -3.6
I     6.9   -0.9    0.4
H     0.8   -5.7   -4.0
I    -6.5    2.8    0.4
I     3.7   -4.9   -3.7
P    -4.9    5.1    1.9
P    -1.2    4.2   -5.9
H    -4.6   -5.3    2.2
H     4.6    3.7   -4.5
I     1.4   -7.2   -0.4
C     0.1   -6.4   -3.7
I    -5.7   -2.2    4.3
I     6.0    2.4    3.7
H    -5.0   -4.4    3.5
H    -6.5    3.1   -2.3
H    -3.6    2.8    6.1
H     3.5    0.1   -6.7
I    -7.4   -1.7   -0.2
P    -2.2    7.0   -1.9
C    -3.4   -5.6    3.8
P     5.3    5.1    1.9
I    -0.9   -0.7    7.5
H     5.2   -4.4    3.5
I     0.3   -1.8   -7.4
I     2.9    6.1    3.7
N    -1.1   -6.2   -4.5
I    -3.8    5.2   -4.3
N    -4.7   -5.3    3.2
H    -6.1    2.0   -4.4
I     5.9   -5.3   -0.2
H     5.6   -5.3    2.2
H    -5.6    3.7   -4.5
H    -3.1   -6.6    3.5
H    -3.3    0.9    7.5
H    -3.5   -5.6    4.9
H    -1.9   -6.8   -4.3
H    -4.0   -2.8    6.7
N     5.5   -5.3    3.2
H    -1.0   -6.2   -5.5
H    -2.5    3.2    7.3
I    -2.9    2.0   -7.6
N    -6.4    3.0   -4.4
H     4.8   -6.0    3.5
N    -3.5    3.0    7.1
H     0.4   -7.4   -4.0
I     1.8    3.7   -7.3
H     2.4   -0.2   -8.1
C    -7.2    3.3   -3.2
H     8.5    0.8   -0.4
C     3.5   -0.1   -7.8
H     0.6    7.9    3.5
I    -3.3    6.8    4.2
H     3.1   -5.5   -6.1
I     3.1   -0.1    8.2
H     2.8   -3.6   -7.5
H    -5.4   -6.0    3.5
I    -0.1    3.8    8.0
C    -3.9    1.7    7.8
P     4.3   -7.6   -1.9
H    -2.9   -2.4    8.1
I    -5.1    7.3   -0.4
P     0.7   -6.7    5.9
I     5.1    7.3   -0.4
I    -6.5   -4.9   -3.7
H     1.8    7.7   -4.3
H    -8.0    2.6   -3.1
H    -4.9    1.6    7.4
H     3.3    2.0   -8.2
C    -4.0   -2.6    7.8
H     4.1   -0.9   -8.1
H     4.1    7.1   -4.0
I    -3.7   -2.5   -8.0
H     8.8    2.5   -0.5
I     2.4   -4.5    7.7
H    -4.1    3.8    7.4
H    -7.5    4.3   -3.2
H     5.3    1.6    7.4
I    -0.6    9.2   -0.2
I    -0.8   -8.5    3.7
I     8.1   -3.0   -3.5
N     9.2    1.5   -0.7
H     3.5    8.2   -2.7
I     6.4    5.2   -4.3
H    -7.0    3.2   -5.3
H     9.0   -2.3    0.8
I     3.2   -7.7    4.2
H    -1.7    8.6    3.5
N     3.9    1.2   -8.5
H     6.7    2.8    6.1
I     8.2    4.7    0.3
H    -4.6   -1.8    8.0
I    -8.7    0.5    3.6
H    -9.2    2.1   -0.5
H    -6.7    0.1   -6.7
H     9.2    1.5   -1.8
N     3.0   -5.6   -7.1
H    -0.9    9.2    2.2
H     6.2   -2.8    6.7
H    -9.6    0.3   -0.4
H     2.0   -5.9   -7.3
C     3.4   -4.4   -7.8
C     6.8   -5.6    3.8
H     7.6   -4.9    3.5
H     4.5   -4.2   -7.5
H     4.9    1.4   -8.2
C     0.3    8.9    3.8
C     3.8    8.1   -3.7
P    -5.9   -7.6   -1.9
P     1.6   -9.5    1.9
H    -3.9    1.9    8.8
N    -1.0    9.3    3.2
N     2.5    8.4   -4.5
H    -5.3    1.4   -8.2
P     8.0   -0.8   -5.7
P     0.6    1.0    9.8
H     8.8   -4.6    0.5
I    -3.4   -8.6   -3.6
H     5.6   -1.8    8.0
H    -9.7   -2.4    0.6
C    -9.9    1.3   -0.1
I    -2.1   -6.3    7.5
H     6.7   -5.6    4.9
I    -0.4   -6.3   -7.9
H   -10.0    1.4    1.0
C     6.3    1.7    7.8
H    -3.8   -4.6    8.2
H    -6.1   -0.9   -8.1
H    -6.1    7.1   -4.0
H     2.3    9.9    0.5
H     0.2    9.0    4.9
I    -7.3    6.1    3.7
H     8.8    3.4    4.0
H     6.9    0.9    7.5
N     6.8    3.0    7.1
H     6.1    3.8    7.4
C     6.2   -2.6    7.8
N    -4.4   -3.8    8.5
C    -6.7   -0.1   -7.8
H     3.8    1.0   -9.5
N     9.9   -2.9    0.9
H     1.0    9.7    3.5
H     7.1   -6.6    3.5
H     9.5   -3.9   -0.9
H    -5.8   -4.2   -7.5
H     4.8   -4.1    8.3
H     2.7    8.4   -5.5
P    -1.2   -3.5   -9.7
H     3.6   -6.4   -7.3
I    -1.3    6.5   -8.1
H    -2.4    1.9  -10.0
C     9.7   -4.1    0.1
P    -8.5   -1.7    5.9
H     2.2    9.4   -4.3
H    10.4    1.4    1.0
H     3.4   -4.6   -8.9
I     9.6    1.5   -4.1
C    10.5    1.3   -0.1
H     4.0    9.8    0.3
N    -6.3    1.2   -8.5
I     2.8   -9.3   -4.3
I     6.9    6.8    4.2
H    -9.3    2.7    4.3
I     6.5   -2.5   -8.0
H    10.0   -3.1    1.9
H    -5.4   -4.1    8.3
I     7.3    2.0   -7.6
I    -2.8    9.7   -3.7
H     4.5    8.9   -4.0
H    -8.8    4.3    4.3
P     8.0    7.0   -1.9
H    -1.0  -10.3   -3.2
I    -7.1   -0.1    8.2
P     4.4    7.9    5.9
H    -7.1   -5.5   -6.1
H    10.8    0.3   -0.4
I     4.5   -9.9    0.3
H    -1.3   10.2    3.5
C     3.1   10.4    0.1
H    -6.9    2.0   -8.2
H    -6.7    8.2   -2.7
I     4.6    5.5    8.2
H     9.8    4.0    2.7
H    -9.9   -4.8    0.3
N     5.8   -3.8    8.5
N   -10.5   -2.9    0.9
H     8.7   -5.2   -4.3
C    -6.4    8.1   -3.7
H    10.7   -2.4    0.6
H     6.3    1.9    8.8
H   -10.4   -3.1    1.9
H    -4.3   -3.7    9.5
C     9.6    4.1    3.8
H     1.8   -4.4   10.0
H     7.3   -2.4    8.1
H     7.7    3.2    7.3
H     3.0   10.7   -0.9
H    -7.4   -3.6   -7.5
I    -7.0   -7.7    4.2
H    -7.8   -0.2   -8.1
C    -6.8   -4.4   -7.8
I     1.5    8.3    7.5
N    -9.6    3.7    4.6
H    -4.6   -9.5    4.0
H    -5.7    8.9   -4.0
H    -2.9    8.1   -7.3
H     9.3    5.1    4.0
H    -2.3  -10.2    4.3
I    -8.8   -7.2   -0.4
I    -5.6    5.5    8.2
N   -11.2    1.5   -0.7
H    11.2    2.1   -0.5
N    -2.2    1.9  -11.0
H     6.4   -4.6    8.2
H   -11.2    1.5   -1.8
I    -5.7   -9.9    0.3
H    -3.4    9.1   -6.1
H    -1.9    0.9  -11.3
P    -5.8    7.9    5.9
P     1.6    6.0    9.7
H    -6.4    1.0   -9.5
P     1.6    6.1   -9.6
C   -10.8   -4.1    0.1
I     6.8   -8.6   -3.6
P     9.0    4.2   -5.9
H    10.5   -4.8    0.3
H     8.3   -6.8   -4.3
N    -7.2   -5.6   -7.1
H   -10.9   -3.9   -0.9
H    -6.2    9.8    0.3
H    -1.4    2.5  -11.2
H   -10.6    4.0    2.7
H   -11.4   -2.3    0.8
H    -4.1  -10.6    2.7
I   -10.1   -4.0    4.2
H    -9.4   -5.7   -4.0
I   -10.8    1.5   -4.1
I    -2.3    1.6   11.4
H     5.6   -9.5    4.0
H     0.0  -11.5   -2.3
I    -8.4    3.7   -7.3
I    -0.0  -11.8    0.4
C    -0.7  -11.3   -3.2
H    -6.6   -6.4   -7.3
H     5.9   -3.7    9.5
I    10.3   -4.0    4.2
H     0.9  -10.9   -4.5
N     9.1   -6.2   -4.5
I    -7.8   -4.5    7.7
H   -11.6    2.5   -0.5
H     1.3   -3.4   11.3
H    -9.8    3.7    5.6
I     3.3    8.3   -7.9
N    -3.5    8.9   -7.1
C    -4.3  -10.5    3.8
H   -11.9    0.8   -0.4
I     3.8   10.6    4.2
N     1.7   -4.4   11.1
I     9.3   -0.7    7.5
I     1.7   -4.0  -11.2
H     3.5   11.4    1.9
I     2.2    3.3   11.4
H    -6.8   -4.6   -8.9
I    -9.9    6.0   -3.6
I    -1.3   -1.3  -12.0
C   -10.8    4.1    3.8
N     3.4   11.7    0.9
P    -1.3   11.9   -2.0
H    10.0   -6.3   -2.7
I     1.6   11.6   -3.5
H    -8.4    7.7   -4.3
I     0.7   -1.2   12.1
H    -4.2    5.0   10.3
N    -3.1  -10.9    4.6
H    11.1    2.7    4.3
I    11.7    0.5    3.6
H    -3.3    3.8   11.1
H    -4.5    8.7   -7.3
N    -7.7    8.4   -4.5
I     1.0   -9.0    8.2
N    10.8    3.7    4.6
I     3.2    0.6  -11.8
N     0.1  -11.6   -4.4
H    -4.2    1.6  -11.6
H     9.2   -6.2   -5.5
H     0.9   -5.0   11.3
H   -10.4   -6.3   -2.7
H    -8.2   -5.9   -7.3
H    -1.5  -12.0   -3.1
I    -9.9   -1.8   -7.4
I    -5.0   -8.1   -8.1
C    -3.4    2.3  -11.8
H    -7.5    8.4   -5.5
H     6.2  -10.6    2.7
H    -0.5  -11.4   -5.3
H     8.5    8.6    3.5
H   -11.6   -4.6    0.5
C   -10.1   -6.4   -3.7
H    10.6    3.7    5.6
H    -3.7    3.3  -11.5
C    -7.1   10.4    0.1
I    10.5    6.0   -3.6
H     2.5   12.3    0.8
I     5.2   -8.1   -8.1
I     0.1    4.3  -11.9
C     5.9  -10.5    3.8
H    -3.3  -10.8    5.6
N    -3.6    4.8   11.1
I    -7.4   -9.3   -4.3
I     8.1   -6.3    7.5
H    -2.8    5.4   11.1
C    10.3   -6.4   -3.7
I     7.4    9.7   -3.7
H     5.7    8.7   -7.3
H    -8.0    9.9    0.5
H     3.6   -3.9   11.6
H   -11.6    3.4    4.0
H    -2.7  -12.5   -0.5
I    -3.7   -3.1   11.8
H     7.8    1.9  -10.0
H   -11.1    5.1    4.0
H     4.2   12.1    0.6
H     6.8    9.1   -6.1
H    -0.1    9.9    8.2
H    -9.8   -7.4   -4.0
H    -7.2   10.7   -0.9
P    -4.9  -10.4   -5.9
P    -8.6   -9.5    1.9
H     6.0    5.0   10.3
H    -2.8  -11.9    4.3
H    -9.6    7.9    3.5
H     5.1  -11.2    4.0
H    -5.1  -11.2    4.0
I     2.4  -12.2    3.7
H    -2.1   10.4   -7.5
P    -2.1   -8.5   -9.6
I    10.5   -1.8   -7.4
H    12.4    2.6   -3.1
P    -9.5   -6.7    5.9
C     2.9   -4.6   11.8
I    -2.7   -5.8  -11.4
H    11.0   -5.7   -4.0
H    -8.0    9.4   -4.3
I    -6.4   10.6    4.2
I     4.1    5.0  -11.3
I   -12.2    4.7    0.3
P     5.3  -10.4   -5.9
H    11.6    4.3    4.3
