         400
 sphere cut out from bulk 
I     0.2   -1.4   -0.0
P    -1.7    1.2   -0.0
H     1.5    1.1    2.3
H     2.0    1.5   -1.9
I     0.9    3.0   -0.1
H     1.9    0.2   -3.0
N     2.5    0.9   -2.5
H     3.2    0.4   -1.9
I    -1.7    1.2   -3.2
I    -1.8    1.3    3.2
H    -1.3   -3.2    2.0
C     2.1    1.3    3.2
H    -2.4   -2.7   -2.2
H     2.8   -0.7    3.2
H    -0.6   -2.1   -3.7
P     2.7   -3.4   -0.1
H    -1.7   -2.2    3.4
I    -4.4   -0.7   -0.0
H     1.5    1.1    4.0
H     3.8    0.3    2.3
N     3.2    0.2    3.2
C    -1.4   -3.1    3.0
I     4.6   -0.7   -0.0
H    -1.1   -4.0   -2.2
H     2.6    2.3    3.2
C    -1.9   -3.5   -2.7
H    -0.5   -3.5    3.5
N    -1.3   -2.9   -4.0
C     3.3    1.7   -3.5
I    -3.6    3.8    0.0
H     2.6    2.2   -4.1
I     2.8   -3.3   -3.2
H    -2.2    3.9    3.1
I     2.9   -3.3    3.2
H     4.0    2.4   -3.0
H    -2.0   -2.4   -4.6
H     3.8    0.3    4.0
H    -1.0    5.0   -2.2
H    -5.2    0.3    2.3
H     3.9    1.0   -4.1
H    -0.8   -3.6   -4.6
H    -2.6   -4.2   -3.1
N    -2.5   -4.1    3.4
H    -3.4   -3.9    3.0
I     0.8   -6.0   -0.1
H    -5.8    0.4   -1.9
H    -2.5    4.7   -3.1
P     2.8    5.6   -0.1
H    -1.2    5.8    2.0
H    -5.0    2.4   -3.0
I     1.1   -0.5   -6.2
H    -2.3   -5.1    3.1
I    -3.7   -5.2    0.0
C    -1.8    5.5   -2.7
N    -2.4    4.8    3.4
I     0.1   -1.5    6.2
H    -0.4    5.5    3.5
I     5.4    3.8    0.0
H    -5.2    0.3    4.0
N    -5.8    0.2    3.2
H    -5.1    1.0   -4.1
H    -2.6   -4.2    4.5
C    -1.3    5.8    3.0
P    -1.6    1.3   -6.4
P    -1.7    1.1    6.4
H    -3.3    5.1    3.0
C    -5.7    1.7   -3.5
N    -6.4    0.9   -2.5
H    -6.2   -0.7    3.2
H    -2.3    6.3   -2.2
H    -2.5    4.8    4.5
I     3.0    5.6    3.2
H    -0.7    5.4   -4.6
I     0.9    2.9    6.4
P    -6.3   -3.4   -0.1
I     2.9    5.7   -3.2
P     7.2    1.2   -0.0
I    -3.4   -1.3   -6.4
N    -1.2    6.1   -4.0
H    -7.0    1.5   -1.9
H     5.6   -3.9    3.0
I     5.3   -5.2    0.0
H     6.6   -2.7   -2.2
H    -6.4    2.3    3.2
I     0.3    7.5   -0.0
I     0.3    4.0   -6.4
C    -6.9    1.3    3.2
I    -6.1   -3.3    3.2
I    -6.2   -3.3   -3.2
H    -7.1    0.2   -3.0
P     2.9   -3.2   -6.4
P     2.7   -3.4    6.4
H    -0.5    6.8   -3.7
H    -1.6    6.8    3.4
I    -4.4   -0.7    6.4
H     2.5   -6.7    3.2
I     4.5   -0.7    6.4
H    -7.4    1.1    2.3
H     1.9   -7.4   -1.9
H    -6.4    2.2   -4.1
I     7.1    1.3    3.2
P    -1.8   -7.8   -0.0
I     7.3    1.2   -3.2
I     0.2   -5.0   -6.4
H     5.7    5.1    3.0
H    -1.9    6.6   -4.6
H     6.4   -4.2   -3.1
H     3.9   -6.6   -3.0
H     1.4   -7.8    2.3
H     2.5   -6.7   -4.1
H     7.3   -2.2    3.4
P    -6.2    5.6   -0.1
C     7.1   -3.5   -2.7
I    -3.6    3.8    6.6
I    -4.1    3.2   -6.6
N     6.5   -4.1    3.4
H     6.8    3.9    3.1
H     7.7   -3.2    2.0
I    -1.9   -7.7    3.2
I    -1.8   -7.7   -3.2
C     2.0   -7.7    3.2
H     6.4    4.7   -3.1
H    -7.5    1.1    4.0
I    -8.0    3.0   -0.1
I     5.6   -1.3   -6.4
H     2.1    0.5   -8.4
H     7.0   -2.4   -4.6
C     3.2   -7.3   -3.5
C     7.6   -3.1    3.0
I     4.8    3.2   -6.6
H     2.3    1.9    8.3
N     2.4   -8.1   -2.5
H     6.4   -4.2    4.5
I    -6.0    5.6    3.2
I     0.8   -6.0    6.4
H    -5.1   -6.6   -3.0
N     6.6    4.8    3.4
I    -8.8   -1.4   -0.0
I    -6.1    5.7   -3.2
H     1.4   -7.8    4.0
P     2.7    5.6    6.4
H     6.7   -5.1    3.1
H     3.5    0.7    8.3
H     7.9   -4.0   -2.2
N     7.7   -2.9   -4.0
P     3.0    5.8   -6.4
I    -3.6   -5.2    6.6
H     6.4    4.8    4.5
I     9.2   -1.4   -0.0
H    -2.1   -2.5    8.7
H     2.9    8.2    3.2
I     5.4    3.8    6.6
I    -4.3    8.3   -0.0
H     3.1   -8.6   -1.9
P    -6.0   -3.2   -6.4
H     1.8   -8.7   -3.0
H     6.7    6.3   -2.2
H     8.4   -2.1   -3.7
C     7.2    5.5   -2.7
N     3.0    1.4    8.9
H    -0.8   -3.7    8.7
I     4.7    8.3   -0.0
P    -6.3   -3.4    6.4
H     8.0    5.0   -2.2
H    -0.6   -4.0   -8.8
N     2.3    0.6   -9.4
I     0.2    7.5    6.2
H     3.7   -8.7    2.3
I    -4.2   -5.8   -6.6
H    -2.8   -3.1   -8.8
P     7.3    1.1    6.4
H     3.8   -8.0   -4.1
N     3.1   -8.7    3.2
I    -1.8    1.0    9.6
I    -1.4    1.4   -9.6
H     8.5   -3.5    3.5
H    -6.5   -6.7    3.2
P     7.4    1.3   -6.4
H     7.7    5.8    2.0
H     2.0    9.2   -3.0
C    -1.4   -3.0    9.3
H     1.7    0.0    9.7
H    -5.5    0.7    8.3
C    -5.8   -7.3   -3.5
H     1.3    0.8   -9.8
I     5.3   -5.2    6.6
I     4.7   -5.8   -6.6
H     8.2   -3.6   -4.6
H    -1.7   -2.0   -9.7
H     2.5   -0.4   -9.7
H     3.3    9.3   -1.9
I    -7.9   -0.5   -6.2
C     7.6    5.8    3.0
I    -8.1   -6.0   -0.1
H     3.8    2.1    9.1
P    -1.7   -7.6   -6.4
H    -0.5    5.0   -8.8
H    -0.8   -2.3    9.8
H    -0.8    5.2    8.7
H    -6.5   -6.7   -4.1
H     3.0    2.5   -9.4
H     3.7   -8.7    4.0
P    -1.6   10.1   -0.0
N     3.3    9.2    3.2
H     3.9    9.3    2.3
H     4.3    1.2   -9.3
P    -1.8   -7.9    6.4
I     9.9    3.0   -0.1
C    -2.2   -3.0   -9.7
H    -5.2   -8.0   -4.1
I     0.1  -10.4   -0.0
C     2.4    0.8   10.1
H    -5.3   -8.7    2.3
C     3.3    1.6   -9.8
H    -7.1   -7.4   -1.9
I     2.8   -3.0   -9.6
H    -9.6   -2.1   -3.7
P    -5.9    5.8   -6.4
H     1.6   10.1    2.3
I    -3.3    7.6   -6.4
N     2.6    9.9   -2.5
H    -4.7    1.2   -9.3
N    -1.1   -4.0   -9.6
I     2.6   -3.5    9.6
H    -1.4    4.0   -9.7
H     2.7   -9.7    3.2
P    -6.2    5.6    6.4
I     1.2    8.5   -6.2
H     7.4    6.8    3.4
P     7.2   -7.8   -0.0
H    -5.9   -8.6   -1.9
I    -4.5   -9.6   -0.0
I     4.5   -9.6   -0.0
H    -9.5   -3.5    3.5
N     7.8    6.1   -4.0
H     7.1    6.6   -4.6
N    -6.5   -8.1   -2.5
I    -8.0    2.9    6.4
H    -6.1    8.2    3.2
H    -5.2    2.1    9.1
N    -5.9    1.4    8.9
P   -10.7    1.2   -0.0
H    -6.6    1.9    8.3
H     8.6    5.5    3.5
H    10.5    1.1    2.3
H     3.9    9.3    4.0
I    -1.6   10.2   -3.2
H    -5.1    9.3    2.3
H    -6.9    0.5   -8.4
C    -6.9   -7.7    3.2
H     2.1   10.5   -1.9
H     8.3    5.4   -4.6
I    -1.7   10.2    3.2
N    -1.0    4.9   -9.6
H    -2.7    5.8   -8.8
I     7.1   -7.7    3.2
C     2.2   10.2    3.2
H    -5.3   -8.7    4.0
H   -10.3   -3.2    2.0
I    -8.9   -1.5    6.2
H     2.0    1.6   10.7
H    -1.5   -5.0   -9.7
H     1.6   10.1    4.0
N    -5.9   -8.7    3.2
H    -2.0    6.5    8.7
H   -10.1   -4.0   -2.2
I     7.2   -7.7   -3.2
H    -5.7    9.3   -1.9
H    -7.5   -7.8    2.3
I     9.1   -1.5    6.2
C    -1.3    5.9    9.3
H     2.2   -7.1    8.3
H     3.2    0.3   10.7
H     6.1   -3.1   -8.8
H    -2.8    4.5    9.8
H    -2.9   -4.5    9.8
I   -10.7    1.2   -3.2
N    -2.2   -3.8   10.3
H    11.0    1.5   -1.9
H    -0.5   -4.0  -10.5
H    10.9    0.2   -3.0
N    -5.7    9.2    3.2
C   -10.4   -3.1    3.0
H    10.5    1.1    4.0
H    -5.1    9.3    4.0
I    -4.4    8.3    6.4
H     6.9   -2.5    8.7
I   -10.8    1.3    3.2
N   -10.3   -2.9   -4.0
H    -9.8   -3.6   -4.6
I     1.0   -9.5   -6.2
H    -2.8   -3.1  -10.6
I     2.7    5.5    9.6
H   -10.0    5.0   -2.2
C    -5.7    1.6   -9.8
H   -10.7   -2.2    3.4
H    -9.4    5.5    3.5
I     4.6    8.3    6.4
H    -5.9    2.5   -9.4
I     5.7    7.6   -6.4
H     4.0    9.9   -4.1
I     9.8   -6.0   -0.1
H     3.4    1.5  -10.9
H     8.5    6.8   -3.7
I    -8.7    7.5   -0.0
I    -8.7    4.0   -6.4
C    -2.1    6.0   -9.7
N    -6.7    0.6   -9.4
C    11.1    1.3    3.2
H    -0.4    5.0  -10.5
H    -7.6   -7.8    4.0
H    -6.5   -0.4   -9.7
H    -7.2   -8.7   -3.0
I     2.9    6.0   -9.6
H    -2.8   -3.2   10.9
C     3.4   10.6   -3.5
N    -2.1    5.2   10.3
H    -0.7  -11.1   -3.7
C   -10.9   -3.5   -2.7
H    -1.8  -11.1    3.4
H     2.9   -6.4   -9.4
I    -6.2   -3.0   -9.6
N    11.5    0.9   -2.5
I    10.1   -0.5   -6.2
H   -11.4   -2.7   -2.2
H    -5.0    9.9   -4.1
H    -1.6   -4.3   10.9
H    -0.7    6.6    9.8
H   -10.2    5.8    2.0
I     9.2    7.5   -0.0
H    -7.0    9.2   -3.0
I    -8.8   -5.0   -6.4
H    -1.5    4.6   10.9
H     2.7   11.2    3.2
H    -6.3   -9.7    3.2
I     9.3    4.0   -6.4
H     3.7   -6.8    9.1
I    -8.1   -6.0    6.4
I     7.1    1.0    9.6
N    -6.4    9.9   -2.5
H    -9.7    5.4   -4.6
H    -1.6    7.0   -9.7
I     1.0   12.0   -0.1
N     3.0   -7.6    8.9
C    -6.5    0.8   10.1
P    -1.6   10.1    6.4
H     2.0   -8.4   -8.4
I    -6.4   -3.5    9.6
H    -5.7    0.3   10.7
H   -11.0   -2.4   -4.6
H    -2.5  -11.7   -2.2
H    -7.3    0.0    9.7
I     9.9    2.9    6.4
C     6.8   -3.0   -9.7
H     3.4   -8.3    8.3
P    11.7   -3.4   -0.1
I     0.0  -10.5    6.2
P    -1.5   10.3   -6.4
H    11.6    2.3    3.2
H   -11.1    3.9    3.1
H    11.8   -0.7    3.2
C   -10.3    5.8    3.0
H     7.2   -2.0   -9.7
H    -9.5    6.8   -3.7
H     6.2    5.8   -8.8
H     2.7   11.2   -4.1
I     9.2   -5.0   -6.4
H    12.1    0.4   -1.9
H    -5.6    1.5  -10.9
I     7.6    1.4   -9.6
P     7.3   -7.6   -6.4
C     7.6   -3.0    9.3
I    -1.5   -7.6   -9.6
H    -1.4  -12.1    2.0
H    -2.7    5.8  -10.6
H     4.1   11.3   -3.0
I     4.4   -9.7    6.4
C   -10.8    5.5   -2.7
P   -10.6    1.3   -6.4
H    -2.1  -11.4   -4.6
H     6.1   -4.5    9.8
I    -4.5   -9.7    6.4
P     7.2   -7.9    6.4
H    -7.6    0.8   -9.8
H     8.1   -3.7    8.7
H     6.2    4.5    9.8
N   -10.2    6.1   -4.0
H    11.6    2.2   -4.1
P     7.3   10.1   -0.0
P   -10.7    1.1    6.4
C    -5.6   10.6   -3.5
N    -1.4  -11.8   -4.0
N    12.2    0.2    3.2
C    -1.5  -12.1    3.0
H    -5.3   -6.8    9.1
I    -1.9   -8.0    9.6
I    -3.5  -10.3   -6.4
H     6.2   -3.1  -10.6
P     2.6  -12.4   -0.1
N   -11.5   -4.1    3.4
