         400
 sphere cut out from bulk 
P    -0.1    0.0   -0.4
I     2.1    0.6    2.1
I    -2.5    0.5    1.6
I    -0.1   -3.1    0.4
I     0.2    3.2   -1.1
I     2.6   -0.5   -2.2
I    -2.1   -0.4   -2.8
H    -3.3   -2.2   -0.2
H     3.4    2.3    0.6
H     3.5   -2.3   -0.7
H    -0.9    3.2    2.7
H    -0.7   -3.1    2.9
H     2.9    3.1   -0.7
H     1.0    2.3    3.7
H    -3.5    3.1    0.3
H     0.9   -3.0   -3.4
H     1.3   -2.2    3.9
H    -4.1    2.2   -1.1
N     3.6    3.1    0.0
H    -0.2   -2.0   -4.4
H     0.6    3.1   -3.7
H    -1.3    2.3    4.2
C    -3.8   -3.1   -0.7
C    -0.9    3.2    3.8
H    -1.1   -2.3    4.3
H     3.9   -3.1    0.7
N    -0.6   -3.1    3.9
N     4.0   -3.1   -0.3
H    -3.7   -3.1   -1.7
H    -3.3   -4.0   -0.2
N     0.6    3.1    4.1
C    -4.2    3.1   -0.5
C     0.5   -2.7   -4.4
H    -1.4    2.2   -4.6
H     3.5    4.0    0.6
H     3.5   -4.0   -0.7
C     0.8   -3.1    4.3
H     1.0    4.0    3.7
N     0.5    3.1   -4.7
H     0.9    2.2   -5.1
H     5.1    2.2   -1.1
H     1.4   -2.3   -5.0
H     1.3   -4.0    3.9
H    -4.0    4.0   -1.2
C     5.0    3.1   -0.5
H    -1.1   -4.0    4.3
H    -1.3    4.1    4.2
C    -1.0    3.1   -5.0
N    -5.2   -3.1   -0.3
H     0.7    3.1    5.2
P    -4.6    0.0    4.0
P     4.6    0.0    4.0
H    -5.7   -2.3   -0.7
H    -5.3   -3.1    0.7
H    -5.7    2.3    0.6
I    -2.0   -0.5    5.9
H    -1.4    4.0   -4.6
C     5.4   -3.1   -0.7
H     5.9   -2.2   -0.2
P    -0.1   -6.3   -0.4
H     0.9   -3.1    5.4
H    -0.8   -4.3   -4.5
P    -0.1    6.3   -0.4
I     4.4   -3.1    3.3
N    -5.6    3.1    0.0
N    -0.0   -3.9   -5.1
I     2.0    5.7    2.1
H     5.7    3.1    0.3
H     1.0    3.9   -5.1
H     5.5   -3.1   -1.7
P     4.6   -0.0   -4.7
I    -4.7   -3.1    3.3
I    -2.6    5.9    1.5
P    -4.6   -0.0   -4.7
H     5.1    4.0   -1.2
I     2.5   -5.8   -2.2
I    -2.0   -5.8   -2.9
I     6.6    0.5    1.6
I     1.9    0.4   -6.6
I     4.5    3.2   -4.2
H    -1.1    3.1   -6.1
H    -5.7   -4.0   -0.7
I    -6.6   -0.5   -2.2
H    -5.7    4.0    0.6
I    -4.7    3.2   -4.2
H     0.7   -4.7   -5.2
I     2.6   -0.5    6.5
H    -6.3    3.1   -0.7
H    -0.4   -3.7   -6.1
H     5.9   -4.0   -0.2
I    -4.5    3.2    4.7
I     4.7    3.2    4.7
I    -2.6   -6.7    1.5
I    -7.1    0.6    2.1
I     2.0   -6.9    2.1
I     2.5    6.8   -2.2
I     7.1   -0.4   -2.8
I     4.3   -3.2   -5.4
I    -2.0    6.8   -2.9
I    -2.7    0.4   -7.2
I    -4.8   -3.2   -5.4
I     0.2    3.2    7.7
P    -0.0    0.0    8.4
I    -2.0   -5.8    5.8
H    -3.6   -3.1    7.1
P    -4.6   -6.3    4.0
P     4.6   -6.3    4.0
P    -4.5    6.3    4.0
P     4.6    6.3    4.0
I     6.6    5.9    1.5
I     1.8    5.9   -6.6
H     3.5    3.1   -7.8
H    -7.9   -2.2    3.9
P     4.5   -6.3   -4.7
I    -6.6   -5.8   -2.2
P     4.5    6.3   -4.7
H     3.1    2.4    8.2
P     9.1    0.0   -0.4
P    -0.1    0.0   -9.1
H     3.5   -2.2    8.1
I    -0.2   -3.2   -8.6
H    -4.3    3.7    7.2
P    -4.6   -6.3   -4.7
H     7.8    2.3    4.2
P    -4.6    6.3   -4.7
I    -2.0    6.8    5.8
H    -3.3    8.6   -0.2
H     8.2    3.2    2.7
I     2.7   -5.9    6.6
H    -8.1    2.3    3.7
P    -9.2    0.0   -0.4
I    -6.6   -0.5    6.5
H     7.7    2.2   -4.6
H     3.4   -8.6    0.6
I     7.2   -0.5    5.9
H     3.8   -3.1   -8.0
H     3.5    8.7   -0.7
I    -7.1    5.7    2.1
H     4.9    3.7    7.2
H    -8.3   -3.0   -3.4
H     8.1   -2.3    4.3
H    -0.8    8.3   -4.5
H     1.0   -8.6    3.7
I    -0.1    9.5    0.4
H     8.5   -3.1    2.9
H    -3.3   -2.2    8.6
I     0.1   -9.4   -1.1
C    -3.7   -3.1    8.2
I    -0.1   -3.2    9.0
H     5.5   -3.1    7.1
H     1.3    8.6    3.9
I     6.6   -6.7    1.5
H     0.7    8.0   -5.2
H    -7.8   -2.3   -5.0
I     1.8   -6.7   -6.6
H    -4.0   -8.6   -1.2
I     9.1   -3.1    0.4
I    -9.0    3.2   -1.1
H    -1.3   -8.6    4.2
H    -7.8   -4.0    3.9
C     8.3    3.2    3.8
I     7.1   -5.8   -2.9
H     3.5   -3.9    8.1
H    -1.0    8.6    4.3
I     6.5    0.4   -7.2
I    -2.7    5.9   -7.3
H     7.8    4.1    4.2
I    -6.6    6.8   -2.2
H    -3.4   -2.2   -8.9
H    -8.1    4.0    3.7
I    -9.3   -3.1    0.4
H    -8.6    3.1   -3.7
I     2.7    6.8    6.6
I    -7.3    0.4   -6.6
H     7.7    4.0   -4.6
H    -1.0   -9.4    2.7
C    -8.3   -3.1    4.3
H    -1.4   -8.6   -4.6
N     4.0   -3.1    8.5
I     9.3    3.2   -1.1
H     2.9   -9.5   -0.7
H    -8.2    2.2   -5.1
N     8.6   -3.1    3.9
C     3.8    2.8   -8.7
H    -0.7    9.5    2.9
H    -4.5    2.0   -8.6
H     3.8    4.7    8.0
H     8.1   -4.0    4.3
H     4.6    2.0   -8.6
C     3.9    2.8    8.8
N    -8.6    3.1    4.1
H    -3.3   -3.9    8.7
C    -8.6   -2.7   -4.4
N    -0.0    8.7   -5.1
H    -5.7    3.1   -7.8
H     5.1   -8.6   -1.2
N     4.5    3.9    8.1
H     3.0    2.4   -9.3
C     8.2    3.1   -5.0
H    -5.4   -3.1   -8.0
H    -3.5   -9.5    0.3
H     0.9   -8.7   -5.1
N     3.6   -9.5    0.0
I    -7.1   -6.9    2.1
H     8.9   -2.0   -4.4
H    -5.7   -2.2    8.1
H    -4.4    2.0    8.9
N    -4.7    3.9    8.1
C    -3.7    9.5   -0.7
H     0.6   -9.5   -3.7
C    -0.9   -9.5    3.8
H     0.9    9.6   -3.4
H     3.4   -2.2   -9.4
I     7.1    6.8   -2.9
H     4.7    2.0    8.9
N     3.9   -3.1   -9.0
H     3.9    9.5    0.7
N    -0.6    9.5    3.9
N     4.0    9.5   -0.3
I    -2.7   -6.7   -7.3
H    -3.4   -4.0   -8.9
C     5.4   -3.1    8.2
H    -3.7    9.5   -1.7
I     0.1    3.2   -9.8
N    -8.7    3.1   -4.7
N     0.6   -9.5    4.1
H    -8.3   -3.1    5.4
H    -5.7    8.7   -0.7
H    -5.7   -8.6    0.6
C    -4.2   -9.5   -0.5
H     5.9    8.6   -0.2
H    -8.5    3.1    5.2
H    -8.2    3.9   -5.1
P    -0.0    6.3    8.4
N    -5.2   -3.1    8.5
C     0.9    9.5    4.3
H    -3.9    4.4    8.7
H     8.4   -4.3   -4.5
H    -6.1    2.4    8.2
P    -0.0   -6.3    8.4
C    -3.8   -3.1   -9.3
H    -9.4   -2.0   -4.4
C    -5.3    2.8   -8.7
H     8.1    3.1   -6.1
C    -5.2    2.8    8.8
N     0.5   -9.5   -4.7
I    -2.6    0.4   10.3
H    -5.6   -3.9    8.1
H    -4.0    4.4   -8.9
H     5.9   -2.2    8.6
H    -5.4    4.7    8.0
H    -9.8   -3.1    2.9
C     5.0   -9.5   -0.5
H     3.4   -3.9   -9.4
H     3.9   -3.1    9.6
H    -0.4    8.9   -6.1
N    -5.2    9.5   -0.3
H     0.7   -9.5    5.2
C    -1.0   -9.5   -5.0
H     5.8   -2.2   -8.9
C     0.6    9.9   -4.4
H     3.4  -10.3    0.6
H     3.6    3.1    9.8
H    -3.3   10.4   -0.2
N    -5.3   -3.1   -9.0
H     9.8    3.1   -3.7
H    -5.3    9.5    0.7
H   -10.1    3.2    2.7
H     3.5   10.3   -0.7
C     5.4    9.5   -0.7
I     7.2   -5.8    5.8
I    -6.5   -5.9    6.6
H     0.9    9.5    5.4
N    -9.8   -3.1    3.9
N    -5.6   -9.5    0.0
I     4.5    9.5    3.3
H    -8.5   -4.7   -5.2
H     1.0  -10.3    3.7
C     9.7   -2.7   -4.4
N     9.7    3.1    4.1
H    10.1   -3.0   -3.4
P     9.1   -6.3   -0.4
H     5.3    4.4    8.7
H     5.7   -9.5    0.3
I    -4.7    9.5    3.3
P     9.1    6.3   -0.4
H    10.2    2.3    3.7
H     5.5    9.5   -1.7
I     2.0    0.4   10.9
P    -0.1    6.3   -9.2
N     4.4    3.9   -9.4
P    -0.1   -6.3   -9.2
H     5.2    4.4   -8.9
N     9.6    3.1   -4.7
C   -10.0    3.2    3.8
C     5.3   -3.1   -9.3
P    -9.2   -6.3   -0.4
N     9.1   -3.9   -5.1
H     5.9   -3.9    8.7
P    -9.2    6.3   -0.4
H     1.3   10.4    3.9
N    -9.2   -3.9   -5.1
H    -4.1  -10.4   -1.1
H    -1.4  -10.3    4.2
H    -1.1   10.3    4.3
H    -5.7   -2.2   -9.4
N    -4.7    3.9   -9.4
I     4.5   -9.4   -4.2
H     8.8   -3.7   -6.1
H     3.7    4.7   -9.6
I     2.5   -0.5  -11.0
H     5.8   -4.0   -8.9
C    10.0   -3.1    4.3
I    -4.7   -9.4   -4.2
H   -10.2   -2.3    4.3
H    -5.3   -3.1    9.6
H    -6.3   -9.5   -0.7
I     6.5    5.9   -7.3
H    -1.1   -9.5   -6.1
H    10.5   -2.2    3.9
I    11.2    0.6    2.1
H    -6.2    2.4   -9.3
I    -4.5   -9.4    4.7
I    -6.5    6.8    6.6
I    -7.3    5.9   -6.6
H    -3.7   -3.1  -10.4
H    -1.4  -10.4   -4.6
I     7.2    6.8    5.8
H    -0.2   10.6   -4.4
I     4.7   -9.4    4.7
H     1.4   10.3   -5.0
H   -10.5    2.3    4.2
H     9.8    3.1    5.2
H    10.1    2.2   -5.1
H    10.2    4.0    3.7
H     0.9  -10.4   -5.1
I   -11.2   -0.4   -2.8
H     5.1  -10.4   -1.1
H    -5.6    3.1    9.8
H    -5.7   -3.9   -9.4
I     4.3    9.4   -5.4
C   -10.1    3.1   -5.0
H   -10.6    2.2   -4.6
H    -9.9   -4.3   -4.5
H   -10.2   -4.0    4.3
H    -5.6   10.3   -0.7
H    -5.8  -10.3    0.6
I   -11.7    0.5    1.6
H    10.1   -3.1    5.4
H    -4.4    3.7  -10.4
I    -2.1   -0.5  -11.7
H     3.8   -7.9    8.0
I     6.5   -6.7   -7.3
H    -1.0    3.1   11.4
H    -9.5   -3.7   -6.1
H    10.5   -4.0    3.9
I    -4.8    9.4   -5.4
H    10.5   -2.3   -5.0
I    11.7   -0.5   -2.2
H     5.9   10.4   -0.2
I    -7.4   -6.7   -6.6
H    -5.5    4.7   -9.6
H     4.8    3.7  -10.4
H    10.1    3.9   -5.1
H   -10.5    4.1    4.2
H    -0.3   -3.7   11.5
I    -2.6    5.9   10.3
H     9.9   -4.7   -5.2
H     5.4   -3.1  -10.4
I     0.2   -9.4    7.7
H   -10.6    4.0   -4.6
H    -4.3   -8.9    7.2
I     6.6    0.4   10.3
I    -9.0    3.2    7.7
H    -7.8    8.6    3.9
H   -10.2    3.1   -6.1
H     7.8   -8.6    4.2
I     2.0  -12.0    2.1
P     9.1    0.0    8.4
H     3.5    8.7    8.1
H    -8.1   -8.6    3.7
H     4.8   -8.9    7.2
H    -3.6    9.5    7.1
H    -5.4   -7.9    8.0
H     7.7   -8.6   -4.6
P    -9.2    0.0    8.4
H    12.1    3.1   -0.7
I    -2.6  -12.1    1.6
I     9.3    3.2    7.7
I    -2.6   -6.7   10.3
H     0.8   -3.1  -12.1
H    -3.9   -8.2    8.7
I     1.9    5.9   11.0
P    -0.1  -12.6   -0.4
I     2.6   12.1   -2.2
H     8.1    8.6    4.3
I   -11.1   -0.5    5.9
H     8.4    8.3   -4.5
P    -0.1   12.6   -0.4
H   -12.5   -2.2   -0.2
