         400
 sphere cut out from bulk 
P     0.0   -0.5   -0.0
I    -2.0    1.9   -0.6
I     2.4    1.6    0.1
I    -0.4   -0.1    3.2
I     0.4   -0.9   -3.2
I    -2.3   -2.7    0.0
I     2.2   -2.8    0.4
H     0.5    3.1    2.0
H     3.3   -0.5    2.4
H    -3.3   -0.7   -2.4
H     0.9    3.6   -2.0
H    -1.1    2.8   -3.1
H    -4.1   -0.3    1.5
H     4.1   -0.9   -1.5
H    -0.4   -4.1   -2.0
H    -3.0   -0.2    3.6
H    -0.5   -4.3    2.0
H     2.9   -0.9   -3.6
C     0.3    4.0    2.5
N    -0.5    3.4   -3.6
C    -4.4   -0.5   -2.4
C     0.3    4.2   -2.7
C     4.3   -0.7    2.4
H     4.4    0.6   -2.4
H     4.8   -0.3    1.5
H    -1.3    3.2    3.7
H     0.1    2.8   -4.2
H    -0.3    4.7    2.0
H    -4.8   -0.9   -1.5
C     4.6   -0.5   -2.4
H    -4.6    0.6   -2.4
C    -4.6   -0.7    2.4
H    -0.3    4.8   -2.0
H     0.9   -4.1   -3.2
N    -0.4    3.7    3.8
H    -4.4   -1.8    2.4
H     1.1   -4.5    2.8
H     0.2    3.1    4.4
N    -4.0   -0.1    3.6
H     1.3    4.5    2.8
C     0.2   -4.7   -2.7
H     4.5   -1.8    2.4
N     4.0   -1.1   -3.6
C     0.2   -4.9    2.5
H    -4.2    0.9    3.6
H     0.8   -5.4   -2.0
H     4.1   -2.1   -3.6
P    -4.4    3.9   -0.0
H    -1.0    4.0   -4.2
H     1.0    4.9   -3.2
P     4.6    3.9   -0.0
H     4.8    0.9    3.6
N     4.9   -0.1    3.6
H     5.6   -0.7   -2.4
I    -3.9    3.5    3.2
H    -5.7   -0.5    2.4
H     0.3   -5.9    2.0
N    -5.0   -1.1   -3.6
H    -0.7   -4.4    4.4
H     4.4   -0.7   -4.5
H    -4.4   -0.5    4.5
H    -0.6    4.5    4.4
H    -4.8   -2.1   -3.6
H     4.5   -0.5    4.5
P     0.1   -0.5    6.4
H    -4.5   -0.7   -4.5
P    -0.2   -0.8   -6.4
N    -0.5   -5.3    3.8
I     2.3    6.1    0.4
I    -2.9    1.0   -5.8
H    -1.2   -5.0   -4.2
N    -0.6   -5.6   -3.6
I    -2.2    6.3    0.0
P     4.5   -5.0   -0.0
I    -6.5    1.6    0.1
P    -4.5   -5.0   -0.0
I     4.1    4.3   -3.2
I     2.8   -2.1    5.8
I     1.5    2.0   -6.4
I     5.0    3.5    3.2
H    -1.4   -5.7    3.7
I     4.0   -4.7   -3.2
H     6.0   -0.2    3.6
H    -1.2   -6.2   -3.1
I     1.9    2.4    6.3
H    -6.0   -0.9   -3.6
I     6.6   -2.7    0.0
I     6.9    1.9   -0.6
I    -4.8    4.3   -3.2
I    -1.7   -3.1    6.4
I    -6.8   -2.8    0.4
H     0.1   -5.9    4.4
H     0.0   -6.1   -4.2
I    -2.1   -7.1   -0.6
I    -2.0   -3.5   -6.3
I    -2.6    1.4    6.9
I    -4.9   -4.7   -3.2
I    -4.1   -5.5    3.2
I     2.3   -7.4    0.1
I     2.5   -2.5   -6.9
I     4.9   -5.5    3.2
I     6.0    1.0   -5.8
P     0.1    8.5   -0.0
P     4.2    3.7   -6.4
I    -1.9    5.5   -6.3
I    -6.1   -2.1    5.8
I     0.5    8.1   -3.2
H    -4.3    7.2    2.4
H    -0.1    2.7   -8.3
P    -4.7    3.7   -6.4
P    -4.4    4.1    6.4
I    -1.5    5.8    6.4
H     4.2    6.8   -3.6
P     4.6    4.1    6.4
H     7.8    2.8   -3.1
H     4.6    7.2    2.4
P    -8.9   -0.5   -0.0
P     9.0   -0.5   -0.0
H    -8.0    3.6   -2.0
H    -4.7    6.8   -3.6
I    -6.7    6.1    0.4
H     7.7    3.2    3.7
I     8.5   -0.1    3.2
H     0.5    3.2    8.5
P     4.4   -4.9    6.4
I    -8.5   -0.9   -3.2
P    -4.5   -4.9    6.4
P     4.1   -5.2   -6.4
H    -3.2    8.3   -2.4
H     4.2    8.1   -1.5
I     6.7    6.3    0.0
H    -8.5    3.1    2.0
H     4.2   -0.9   -8.3
H    -4.2   -0.3    8.3
H     3.1    8.0   -3.6
I     1.7   -6.6    6.3
H    -7.7    4.5    2.8
H    -0.9    4.2   -8.3
H    -7.8   -4.5    2.8
H     3.4    8.5    2.4
I    -0.3    8.8    3.2
H    -4.7    8.1   -1.5
I     3.0    6.8    5.8
P    -0.1   -9.5   -0.0
I     6.4    1.4    6.9
N    -0.7    3.3   -8.9
H     4.7   -0.3    8.3
I     0.7   -0.5    9.5
I    -0.8   -0.5   -9.5
P    -4.8   -5.2   -6.4
I     1.4   -7.0   -6.4
H    -4.8   -0.9   -8.3
N     4.1    7.9   -3.6
H    -0.7    4.4    8.5
H    -8.1   -4.1   -3.2
H    -1.6    2.9   -9.1
H    -1.0   -4.8   -8.3
I    -0.5   -9.1    3.2
H     8.5   -4.1   -2.0
H     4.3   -8.4   -2.4
C     4.4    8.3    2.4
H     8.5   -4.3    2.0
H    -3.3   -0.6   -9.1
H    -0.8   -4.6    8.5
C    -4.5    8.3    2.4
H     3.3   -0.6    9.1
H    -4.0    8.7    1.5
I    -6.4   -2.5   -6.9
H    -4.3   -8.0    3.6
C    -4.3    8.5   -2.4
I    -7.1    2.4    6.3
H     7.9    4.0   -4.2
N     8.5    3.4   -3.6
I     2.6    6.5   -6.9
I     6.8   -7.1   -0.6
C    -8.6    4.0    2.5
H    -7.9    4.9   -3.2
H    -4.7   -8.4   -2.4
N    -0.1    3.8    9.1
H    -2.9    8.7    3.6
I    -6.6   -7.4    0.1
I    -9.4   -0.1    3.2
I     9.3   -0.9   -3.2
N    -4.9    7.9   -3.6
C    -8.6    4.2   -2.7
H     4.7   -8.0    3.6
H    -8.1   -5.4   -2.0
I    -7.4    2.0   -6.4
H     8.6    4.7    2.0
C     4.7    8.5   -2.4
I     7.0   -3.5   -6.3
H     8.6    4.8   -2.0
H     9.4    3.1    2.0
N     8.6    3.7    3.8
N    -4.3   -0.5   -9.1
H     4.9    8.7    1.5
N     4.3   -0.7    9.1
H     7.8   -5.0   -4.2
H     4.4    0.6   -9.1
H    -8.8    2.8   -4.2
H     7.5   -5.7    3.7
H    -4.5    0.6   -9.1
H    -0.8    3.2    9.7
I     7.3   -3.1    6.4
N     4.6   -0.5   -9.1
H    -8.7    3.1    4.4
H     1.2   -3.7    9.5
C    -8.7   -4.7   -2.7
H    -4.3   -9.2    1.5
N    -4.6   -0.7    9.1
H     3.1   -9.5    2.4
H     0.4   -5.8    8.5
H     4.5   -1.7    9.1
P    -0.1    8.1   -6.4
I    -3.0   -8.0   -5.8
H    -4.5   -1.7    9.1
N    -3.9    8.9    3.6
H     8.3   -4.4    4.4
H    -3.1   -9.2    3.6
H     7.7   -6.2   -3.1
C    -8.8   -4.9    2.5
H     5.8    8.3   -2.4
C     9.2    4.0    2.5
I     0.3   -9.9   -3.2
H    -4.4    8.3   -4.5
H     9.1    2.8   -4.2
H    -5.6    8.5    2.4
H    -0.2   -6.3   -8.3
H     4.5    8.3   -4.5
H     4.7   -9.2    1.5
H    -9.4   -4.1   -2.0
H    -3.4   -9.6   -2.4
H     8.4    4.5    4.4
N    -0.3   -5.2    9.1
H    -4.3    8.5    4.5
H    -9.4   -4.3    2.0
C     9.3    4.2   -2.7
N    -0.8   -5.6   -8.9
H    -5.9    8.0   -3.6
N    -4.1   -9.0    3.6
H    -8.6   -5.9    2.0
H    -9.3    4.7    2.0
I    -2.7   -7.6    6.9
N    -9.4    3.4   -3.6
H     4.6    8.5    4.5
P     0.3    8.5    6.4
H     9.2    3.1    4.4
H    -9.3    4.8   -2.0
C     9.2   -4.7   -2.7
N     8.4   -5.6   -3.6
N     8.5   -5.3    3.8
C     9.1   -4.9    2.5
H     9.9    3.6   -2.0
C     4.5   -9.4   -2.4
C    -4.5   -9.4   -2.4
H     5.6   -0.6   -9.1
N    -9.3    3.7    3.8
H     2.9   -0.9  -10.3
H    -3.0   -0.3   10.3
H    -5.7   -0.6    9.1
H     4.0   -9.9   -1.5
I    -6.0    6.8    5.8
C    -0.0    3.6  -10.2
C     4.2   -9.7    2.4
H     0.9    4.1  -10.0
H    -4.4    9.6   -2.4
N     5.0    8.9    3.6
H     4.5    9.6   -2.4
H   -10.0    2.8   -3.1
P     8.8   -0.8   -6.4
P    -8.8   -0.5    6.4
I    -4.3    3.1   -9.5
N     4.8   -9.0    3.6
I     2.5   10.6    0.1
H     2.8   -9.9   -3.6
H     1.3    5.3    9.5
I     7.1    5.5   -6.3
C     0.6   -4.4   10.1
I    -1.9   10.8   -0.6
C    -4.7   -9.7    2.4
I     4.7    3.1   -9.5
H    -1.7   -6.1   -9.1
H     0.1    2.7  -10.7
C     0.7    4.6   10.1
P     9.1   -0.5    6.4
H     0.8   -4.8  -10.0
C    -4.0   -0.1   10.3
H     9.8   -4.1   -3.2
C     4.0   -1.1  -10.3
I   -11.0    1.9   -0.6
H    -4.9   -9.9   -1.5
P    -9.1   -0.8   -6.4
H     9.3   -5.9    2.0
H    -4.2    1.0   10.3
H     6.1    8.7    3.6
I     4.4   -4.3    9.5
H    -4.0    9.9    3.6
H   -10.2    3.2    3.7
H    -0.9   -5.8    9.7
H     4.2   -2.2  -10.3
H    -0.1   -3.8   10.7
H     9.8   -5.4   -2.0
N     3.9  -10.1   -3.6
H     5.5   -9.6   -2.4
H     4.4   -9.5    4.5
H    10.1   -4.5    2.8
P     0.0   -9.4    6.4
H    -5.8   -9.5    2.4
I    -6.3    6.5   -6.9
H     4.7    1.0   10.3
I    -4.6   -4.3    9.5
I     7.4    5.8    6.4
H    -4.5   -9.5    4.5
H    -9.5    4.5    4.4
C     4.9   -0.1   10.3
H     4.3   -9.6   -4.5
N    -9.4   -5.3    3.8
H    -9.6   -4.4    4.4
H     1.3    3.9   10.7
I    11.4    1.6    0.1
I    11.1   -2.8    0.4
I     4.5    4.7    9.5
I    -4.5    4.7    9.5
H    -8.8   -5.9    4.4
H    10.2    4.5    2.8
H     5.8   -9.2    3.6
C    -0.1   -5.3  -10.2
C    -4.9   -1.1  -10.3
I     5.9   -8.0   -5.8
H    -4.7   -2.2  -10.3
H     9.9    4.9   -3.2
H   -10.0    4.0   -4.2
I   -11.3   -2.7    0.0
H    -4.7   -9.6   -4.5
H    -0.7    4.3  -10.7
N    -9.5   -5.6   -3.6
H    -8.9   -6.1   -4.2
H     4.9    9.9    3.6
I    -7.2   -6.6    6.3
H     9.0   -6.1   -4.2
H     9.1   -5.9    4.4
P    -0.3   -9.8   -6.4
H    -0.8   -4.6  -10.7
N    -5.1  -10.1   -3.6
H     4.4  -10.7    2.4
I    -2.8   10.0   -5.8
I    -2.4  -11.6    0.0
H     1.2   -5.0   10.7
H    -0.0    5.2   10.7
H    -4.5  -10.7    2.4
H     6.0   -0.3   10.3
H    -6.0   -0.9  -10.3
I    -4.4   -5.8   -9.5
I     2.1  -11.8    0.4
I     6.2   -7.6    6.9
H     7.3    2.9   -9.1
H   -10.1   -5.0   -4.2
I     4.6   -5.8   -9.5
H     4.5   -0.6  -11.2
H    -4.5   -0.6  -11.2
H     4.4   -0.5   11.2
I    -7.5   -7.0   -6.4
I    -8.4    8.1   -3.2
H    -4.5   -0.5   11.2
H    -1.0   11.7   -3.1
H    -6.1   -9.9   -3.6
P    -8.8    8.5   -0.0
H     0.6   12.1    2.0
H   -10.1   -6.2   -3.1
H     8.0    4.2   -8.3
H     4.0  -11.1   -3.6
H     4.3    8.1   -8.3
I    -6.4   10.6    0.1
H   -10.3   -5.7    3.7
P     9.1    8.5   -0.0
I    10.5    2.0   -6.4
H     0.0   -6.2  -10.7
H    -8.5    3.2    8.5
H     8.8    2.7   -8.3
H    12.2   -0.5    2.4
H    -4.4    7.2    9.1
I    -1.7    2.2   12.1
H    11.9   -0.9   -3.6
H    -4.6    8.1   -8.3
H     7.9   -4.8   -8.3
H   -11.9   -0.2    3.6
H   -12.2   -0.7   -2.4
H     4.6    7.2    9.1
H     0.3   11.8   -4.2
I     8.2   -0.5   -9.5
I    -8.2   -0.5    9.5
H    -9.0    2.7   -8.3
N     8.2    3.3   -8.9
H     8.1   -4.6    8.5
H     8.2    4.4    8.5
H    -4.9  -11.1   -3.6
H    -4.1    8.7    8.3
I    -2.5   10.3    6.9
I     0.8    8.4    9.5
H     1.1   12.5   -2.0
