         400
 sphere cut out from bulk 
P     0.0   -0.0   -0.0
I    -2.5   -1.9   -0.0
I     2.5    1.9   -0.0
I    -1.9    2.6    0.6
I     1.9   -2.6   -0.6
I     0.3   -0.6    3.2
I    -0.3    0.6   -3.2
H    -3.2   -0.0    2.7
H     3.2    0.0   -2.7
H    -0.1    3.1   -2.8
H     0.1   -3.1    2.8
H    -4.2    0.2   -1.6
H     4.2   -0.2    1.6
H    -2.9    0.4   -3.7
H     2.9   -0.4    3.7
H    -0.1    4.3    1.8
H     0.1   -4.3   -1.8
H    -0.2    2.9    3.8
H     0.2   -2.9   -3.8
H     0.1    4.5   -1.8
H    -0.1   -4.5    1.8
H    -4.6   -0.2    1.6
H     4.6    0.2   -1.6
C    -4.2    0.2    2.6
C     4.2   -0.2   -2.6
N    -0.3    4.2   -2.7
N     0.3   -4.2    2.7
C    -4.6   -0.2   -2.6
C     4.6    0.2    2.6
H    -1.3    4.3   -2.8
H     1.3   -4.3    2.8
H     4.4    1.3    2.7
H    -4.4   -1.3   -2.7
H    -4.4    1.3    2.7
H     4.4   -1.3   -2.7
N    -3.9    0.5   -3.7
N     3.9   -0.5    3.7
N     0.2    4.7    2.7
N    -0.2   -4.7   -2.7
H     1.3    4.6    2.8
H    -1.3   -4.6   -2.8
C    -0.4    4.0    3.9
C     0.4   -4.0   -3.9
H    -4.1    1.5   -3.7
H     4.1   -1.5    3.7
H    -1.5    4.2    3.8
H     1.5   -4.2   -3.8
H    -1.5   -4.7    3.8
H     1.5    4.7   -3.8
N    -4.9   -0.5    3.7
N     4.9    0.5   -3.7
H    -4.8   -1.5    3.7
H     4.8    1.5   -3.7
C    -0.4   -4.9    3.9
C     0.4    4.9   -3.9
P     4.4    4.4   -0.0
P    -4.4   -4.4   -0.0
P    -4.5    4.4   -0.0
P     4.5   -4.4   -0.0
H    -5.7    0.0   -2.7
H     5.7   -0.0    2.7
H    -4.3    0.1   -4.6
H     4.3   -0.1    4.6
H     0.1    5.7    2.8
H    -0.1   -5.7   -2.8
P    -0.2   -0.2    6.4
P     0.2    0.2   -6.4
H    -4.6   -0.1    4.6
H     4.6    0.1   -4.6
I    -3.9    4.1   -3.2
I     3.9   -4.1    3.2
H    -0.1    4.4    4.8
H     0.1   -4.4   -4.8
H     0.0    4.5   -4.8
H    -0.0   -4.5    4.8
I     1.8    6.3   -0.6
I    -1.8   -6.3    0.6
I    -6.4    1.9   -0.0
I     6.4   -1.9   -0.0
I    -2.8    1.6    5.9
I     2.8   -1.6   -5.9
I     3.8    4.8    3.2
I    -3.8   -4.8   -3.2
H    -6.0   -0.4    3.7
H     6.0    0.4   -3.7
I     1.7    2.3    6.4
I    -1.7   -2.3   -6.4
H    -0.2   -5.9    3.8
H     0.2    5.9   -3.8
I    -5.0   -4.1    3.2
I     5.0    4.1   -3.2
I    -2.1   -2.8    6.4
I     2.1    2.8   -6.4
I    -2.6    7.0   -0.0
I     2.6   -7.0   -0.0
I    -7.0   -2.6   -0.6
I     7.0    2.6    0.6
I    -5.0    4.8    3.2
I     5.0   -4.8   -3.2
I    -2.4    2.1   -7.0
I     2.4   -2.1    7.0
I    -6.0   -1.6   -5.9
I     6.0    1.6    5.9
P     4.2    4.2    6.4
P    -4.2   -4.2   -6.4
P    -0.0    8.9   -0.0
P    -8.9   -0.0   -0.0
P     0.0   -8.9   -0.0
P     8.9   -0.0   -0.0
I     0.3    8.3    3.2
I    -0.3   -8.3   -3.2
P    -4.7    4.2    6.4
P    -4.2    4.7   -6.4
P     4.2   -4.7    6.4
P     4.7   -4.2   -6.4
H    -0.5    4.0    8.1
H     0.5   -4.0   -8.1
I    -2.2    6.1    6.4
I     2.2   -6.1   -6.4
I    -8.5   -0.6    3.2
I     8.5    0.6   -3.2
H    -7.6   -4.3    2.8
H     7.6    4.3   -2.8
H     4.1    7.3    3.7
H    -4.1   -7.3   -3.7
H     4.4    7.6   -2.7
H    -4.4   -7.6    2.7
H    -4.5    7.6   -2.7
H     4.5   -7.6    2.7
P    -4.7   -4.7    6.4
P     4.7    4.7   -6.4
H    -4.1    0.3   -8.3
H     4.1   -0.3    8.3
H    -7.4   -4.2   -3.8
H     7.4    4.2    3.8
H    -7.6    4.6    2.8
H     7.6   -4.6   -2.8
I    -1.7    6.6   -6.4
I     1.7   -6.6    6.4
I     6.3    7.0   -0.0
I    -6.3   -7.0   -0.0
H    -0.4   -4.9    8.1
H     0.4    4.9   -8.1
I    -7.1    6.3   -0.6
I     7.1   -6.3    0.6
H    -4.8    7.3    3.7
H     4.8   -7.3   -3.7
H    -7.4    4.7   -3.8
H     7.4   -4.7    3.8
H    -4.8   -0.3    8.3
H     4.8    0.3   -8.3
I    -0.8    0.1    9.7
I     0.8   -0.1   -9.7
H    -8.8   -3.1    2.8
H     8.8    3.1   -2.8
H     2.9    8.5    3.7
H    -2.9   -8.5   -3.7
H    -0.2   -3.4    9.1
H     0.2    3.4   -9.1
I    -6.7    2.8   -6.4
I     6.7   -2.8    6.4
I    -2.8   -7.3    5.9
I     2.8    7.3   -5.9
H     4.2    8.7    1.6
H    -4.2   -8.7   -1.6
I    -9.2    0.6   -3.2
I     9.2   -0.6    3.2
H    -3.1   -8.9    2.7
H     3.1    8.9   -2.7
I    -6.5   -2.1    7.0
I     6.5    2.1   -7.0
H    -3.2    8.9    2.7
H     3.2   -8.9   -2.7
H    -3.4   -0.1    9.2
H     3.4    0.1   -9.2
H     8.6    2.9    3.8
H    -8.6   -2.9   -3.8
H    -9.0    3.1   -2.8
H     9.0   -3.1    2.8
H    -8.8   -4.3   -1.8
H     8.8    4.3    1.8
N    -8.6   -4.2    2.7
N     8.6    4.2   -2.7
I    -7.2    2.3    6.4
I     7.2   -2.3   -6.4
N     3.9    8.4    3.7
N    -3.9   -8.4   -3.7
C     4.2    8.7   -2.6
C    -4.2   -8.7    2.6
I    -0.4    9.5   -3.2
I     0.4   -9.5    3.2
H    -4.7    8.7    1.6
H     4.7   -8.7   -1.6
I     2.3    6.8    7.0
I    -2.3   -6.8   -7.0
C    -0.1    4.4    9.0
C     0.1   -4.4   -9.0
H    -8.8    4.5   -1.8
H     8.8   -4.5    1.8
H     1.0    4.2    9.1
H    -1.0   -4.2   -9.1
C    -0.0   -4.5    9.0
C     0.0    4.5   -9.0
C     8.4    4.0    3.9
C    -8.4   -4.0   -3.9
H    -9.0    4.3    1.8
H     9.0   -4.3   -1.8
H    -4.3    9.1   -1.6
H     4.3   -9.1    1.6
N    -4.4    0.0    9.2
N     4.4   -0.0   -9.2
C    -4.7    8.7   -2.6
C     4.7   -8.7    2.6
N    -8.6    4.7    2.7
N     8.6   -4.7   -2.7
N    -4.5   -0.0   -9.2
N     4.5    0.0    9.2
H    -9.0   -4.5    1.8
H     9.0    4.5   -1.8
H    -4.3   -1.1   -9.2
H     4.3    1.1    9.2
H     1.0   -4.7    9.1
H    -1.0    4.7   -9.1
H    -9.1    2.9    3.8
H     9.1   -2.9   -3.8
H     4.6    9.1   -1.6
H    -4.6   -9.1    1.6
H    -4.6    1.1    9.2
H     4.6   -1.1   -9.2
H    -3.0    9.2   -3.7
H     3.0   -9.2    3.7
C    -4.3    9.1    2.6
C     4.3   -9.1   -2.6
N    -5.0    8.4    3.7
N     5.0   -8.4   -3.7
N    -9.2    4.2   -2.7
N     9.2   -4.2    2.7
H    -0.6    2.7   10.1
H     0.6   -2.7  -10.1
C     4.6    9.1    2.6
C    -4.6   -9.1   -2.6
C    -8.5    4.9   -3.9
C     8.5   -4.9    3.9
H    -2.7    0.5  -10.2
H     2.7   -0.5   10.2
N     9.1    4.7    2.7
N    -9.1   -4.7   -2.7
H    -0.3    5.5    9.1
H     0.3   -5.5   -9.1
H    -5.5    0.1   -9.2
H     5.5   -0.1    9.2
H     4.3    8.7    4.6
H    -4.3   -8.7   -4.6
P    -0.3    8.6    6.4
P    -8.6    0.2   -6.4
P     0.3   -8.6   -6.4
P     8.6   -0.2    6.4
N    -0.8    3.7   10.2
N     0.8   -3.7  -10.2
N    -4.0    9.4   -3.7
N     4.0   -9.4    3.7
H    -5.7   -8.9   -2.7
H     5.7    8.9    2.7
H    -8.8    5.7    2.8
H     8.8   -5.7   -2.8
C    -9.3    4.0    3.9
C     9.3   -4.0   -3.9
H    -5.7    8.9   -2.7
H     5.7   -8.9    2.7
H    -4.6    8.7    4.6
H     4.6   -8.7   -4.6
H    -1.8    3.9   10.1
H     1.8   -3.9  -10.1
H    -8.8   -4.4   -4.8
H     8.8    4.4    4.8
H    -9.0   -5.7   -2.8
H     9.0    5.7    2.8
C    -3.8    0.7  -10.3
C     3.8   -0.7   10.3
H    -4.3    9.0   -4.6
H     4.3   -9.0    4.6
H    -8.9    4.5   -4.8
H     8.9   -4.5    4.8
H    -8.9   -4.5    4.8
H     8.9    4.5   -4.8
H    -8.9    4.4    4.8
H     8.9   -4.4   -4.8
H    -6.0    8.5    3.7
H     6.0   -8.5   -3.7
I   -10.7    2.6    0.6
I    10.7   -2.6   -0.6
I     2.5   10.8   -0.0
I    -2.5  -10.8   -0.0
H     4.5    9.0   -4.6
H    -4.5   -9.0    4.6
H     4.0   -1.7   10.2
H    -4.0    1.7  -10.2
I     6.7    6.1    6.4
I    -6.7   -6.1   -6.4
I    -6.1    7.3   -5.9
I     6.1   -7.3    5.9
P    -9.1   -0.2    6.4
P     0.2    9.1   -6.4
P    -0.2   -9.1    6.4
P     9.1    0.2   -6.4
H     8.7   -5.9    3.8
H    -8.7    5.9   -3.8
C    -9.3   -4.9    3.9
C     9.3    4.9   -3.9
I    -4.4    3.6    9.7
I     4.4   -3.6   -9.7
N     4.9    9.4   -3.7
N    -4.9   -9.4    3.7
I     4.5    3.6    9.7
I    -4.5   -3.6   -9.7
H     4.4   10.1    2.7
H    -4.4  -10.1   -2.7
H    -4.5   10.1    2.7
H     4.5  -10.1   -2.7
H   -10.2    4.3   -2.8
H    10.2   -4.3    2.8
N    -0.7   -5.2   10.2
N     0.7    5.2  -10.2
H    -1.7   -5.0   10.1
H     1.7    5.0  -10.1
H    10.1    4.6    2.8
H   -10.1   -4.6   -2.8
H    -4.9   -1.7   10.2
H     4.9    1.7  -10.2
H     9.1    5.9   -3.8
H    -9.1   -5.9    3.8
C    -5.1   -0.7   10.3
C     5.1    0.7  -10.3
I   -11.4   -1.9   -0.0
I    11.4    1.9   -0.0
H     5.9    9.2   -3.7
H    -5.9   -9.2    3.7
I    -1.9   11.5    0.6
I     1.9  -11.5   -0.6
I    -7.2   -6.6    6.4
I     7.2    6.6   -6.4
I    -6.6    6.8    7.0
I     6.6   -6.8   -7.0
H    -4.1   10.4   -3.7
H     4.1  -10.4    3.7
H    -0.4    4.1   11.1
H     0.4   -4.1  -11.1
I    -4.3   -5.3    9.7
I     4.3    5.3   -9.7
H   -10.4    4.2    3.8
H    10.4   -4.2   -3.8
H    -0.6   -6.2   10.1
H     0.6    6.2  -10.1
I    -4.6    5.3   -9.7
I     4.6   -5.3    9.7
H    -6.2   -0.5   10.2
H     6.2    0.5  -10.2
H   -10.4   -4.7    3.8
H    10.4    4.7   -3.8
H    -4.2    0.3  -11.2
H     4.2   -0.3   11.2
H     4.7   10.4   -3.7
H    -4.7  -10.4    3.7
H    -0.3   -4.8   11.1
H     0.3    4.8  -11.1
H    -4.7   -0.3   11.2
H     4.7    0.3  -11.2
H     8.4    4.0    8.1
H    -8.4   -4.0   -8.1
H    -0.2   12.0   -2.8
H     0.2  -12.0    2.8
H   -12.1   -0.0    2.7
H    12.1    0.0   -2.7
H   -11.8    0.4   -3.7
H    11.8   -0.4    3.7
I    -2.9   10.5    5.9
I     2.9  -10.5   -5.9
I    -8.6    8.3    3.2
I     8.6   -8.3   -3.2
H    -0.3   11.8    3.8
H     0.3  -11.8   -3.8
I   -10.7   -6.3    0.6
I    10.7    6.3   -0.6
P    -8.8   -8.9   -0.0
P     8.8    8.9   -0.0
I    -6.4   10.8   -0.0
I     6.4  -10.8   -0.0
I   -10.5   -2.3   -6.4
I    10.5    2.3    6.4
H     4.1    8.5    8.3
H    -4.1   -8.5   -8.3
P    -8.9    8.9   -0.0
P     8.9   -8.9   -0.0
I    -8.1   -0.1   -9.7
I     8.1    0.1    9.7
H    -8.5    4.9   -8.1
H     8.5   -4.9    8.1
H    -7.9    4.2    9.1
H     7.9   -4.2   -9.1
I     1.4   -3.1   12.3
