         400
 sphere cut out from bulk 
I     1.4   -1.6    0.1
I    -1.9    1.0    0.0
P     0.5    0.7    2.1
P     0.5    0.7   -2.3
I     2.0    2.6   -0.0
H    -3.5   -1.1   -0.1
H    -3.0   -2.0    2.1
I    -1.4   -1.3   -3.8
H     1.3   -3.5   -2.1
H     4.0   -1.8   -0.0
H    -3.3    2.7   -1.2
I    -1.1   -1.1    4.1
H     1.1   -3.6    2.4
N    -4.1   -1.9    0.3
H    -3.7   -2.8   -0.0
C    -4.0   -1.8    1.8
H    -4.3   -0.8    2.1
H    -0.9   -3.6   -3.2
I     3.1    0.0   -3.8
H    -0.5   -4.3    2.3
H    -0.9   -4.6   -1.8
I     2.9    0.1    4.1
I    -0.2    3.3   -3.8
I    -0.2    3.1    4.1
H     1.0    5.1   -0.2
C     0.5   -4.4    2.7
H     4.7   -0.8    2.1
C     1.0   -4.4   -2.7
N    -0.5   -4.5   -2.8
H     4.1    3.1   -1.2
N     5.0   -1.9    0.3
H    -5.0   -1.8   -0.0
N    -4.0    3.3   -1.6
H     4.3   -2.6    2.2
H     0.0    5.1    2.0
I    -2.5   -5.1    0.1
C     5.0   -1.8    1.8
H     5.6   -1.1   -0.1
H     0.1   -3.5    4.5
H    -4.1    2.2   -3.4
H    -4.7   -2.6    2.2
H    -3.7    4.3   -1.3
H     1.4   -4.3   -3.7
H     1.4   -5.3   -2.2
H    -4.9    3.1   -1.2
H    -3.1    3.7   -3.5
H     1.0   -5.4    2.4
N     0.6    6.0    0.1
C    -4.0    3.3   -3.1
H     5.4   -2.8   -0.0
H    -0.4    6.1   -0.2
N     0.5   -4.4    4.2
C     0.7    6.0    1.6
H    -4.2    2.5    3.8
N     5.1    3.3   -1.6
H     1.7    5.8    1.9
H    -0.7   -5.3   -3.3
H     5.0    2.2   -3.4
H     5.8    2.7   -1.2
H    -2.4    4.0    4.5
H     1.5   -4.5    4.6
P     0.6    0.7    6.5
H     4.8    2.5    3.8
H     4.2    3.9   -3.5
H     6.0   -2.0    2.1
C     5.1    3.3   -3.1
H    -3.6    2.1    5.4
H     1.2    6.8   -0.2
H    -0.0   -5.2    4.5
H     5.3    4.3   -1.3
C    -4.1    2.8    4.9
I    -3.0    6.3    0.0
H     1.0   -0.1   -6.9
H    -0.4    0.8   -7.0
I    -5.9    0.0   -3.8
H    -4.9    3.9   -3.5
P    -4.0   -1.9   -5.6
I     2.6   -6.7    0.1
H     1.1    1.6   -6.9
H    -2.9   -1.9    6.3
H     0.3    6.9    2.0
N    -3.4    4.1    4.9
I     7.2    1.0    0.0
H     3.9    3.0    5.3
N     0.6    0.8   -7.3
I     4.5   -4.5   -3.8
I    -6.2    0.1    4.1
C     4.9    2.8    4.9
I    -4.6   -4.5   -3.8
I    -7.0    2.6   -0.0
I     4.1   -4.8    4.2
H    -3.9    4.9    4.4
P     5.0   -1.9   -5.6
H    -4.4   -0.9    6.3
I    -7.6   -1.6    0.1
H     4.6   -0.9    6.3
H     6.0    3.7   -3.5
C    -4.0   -1.8    6.6
H    -5.1    3.0    5.3
H     5.5    2.1    5.4
I    -4.9   -4.8    4.2
H    -3.3    4.4    5.9
I     3.1    6.5   -3.7
H     0.2    5.2    6.3
P     0.6    5.9   -5.6
H     4.5   -2.7    6.3
I    -3.2    0.7   -7.5
H    -4.6   -2.7    6.3
I     2.4   -2.5   -7.5
I    -2.1    1.4    7.9
I     6.6   -5.1    0.1
P    -4.0   -7.0    2.1
H     5.2    4.9    4.4
I     1.4   -1.9    8.1
C     5.1   -1.8    6.6
N     5.7    4.1    4.9
P    -4.1   -7.2   -2.3
I     3.6    6.7    4.1
I    -1.6   -7.4    4.2
I     7.7   -1.3   -3.8
I    -1.5   -7.7   -3.8
I     2.4    3.9   -7.4
I    -2.2   -3.8   -7.5
I     2.5    2.8    7.9
I     6.1    6.3    0.0
H    -7.8   -3.5   -2.1
P    -8.5    0.7    2.1
C     0.6    0.8   -8.8
I    -1.3    7.9   -3.8
P    -8.5    0.7   -2.3
P     5.0   -7.0    2.1
H     1.1   -8.8   -0.2
H     1.8    6.0    6.4
H     0.2   -8.7    2.0
H     6.7    4.0    4.5
H     6.1   -1.9    6.3
P     4.9   -7.2   -2.3
H    -7.9   -3.6    2.4
C     0.7    6.0    6.7
I     8.0   -1.1    4.1
H     0.1   -0.1   -9.2
H    -3.5   -1.0    8.5
N    -4.0   -1.8    8.1
H     1.7    0.7   -9.1
I    -6.4   -6.7    0.1
H     0.2    1.7   -9.1
I    -1.5    8.2    4.2
I     2.8    8.9    0.1
H     5.8    4.4    5.9
H     0.3    6.9    6.3
I    -2.1    5.4   -7.5
H    -7.7   -4.3   -3.7
H    -8.1    5.1   -0.2
H    -7.3    5.8    1.9
H    -3.5   -2.7    8.5
H    -0.5   -9.5   -0.2
H     8.2   -3.6   -3.2
H     8.2   -4.6   -1.8
C    -8.0   -4.4   -2.7
I    -5.9    6.5   -3.7
H     4.1   -1.8    8.5
I    -5.5    6.7    4.1
H    -7.7   -5.3   -2.2
I     5.9    0.7   -7.5
I    -2.1   -4.9    8.0
P    -4.0    8.4   -2.3
N     0.5   -9.6    0.1
P    -3.9    8.6    2.1
N     5.1   -1.8    8.1
I    -3.1   -9.3    0.0
C     0.6   -9.7    1.6
P     9.6    0.7    2.1
P     9.6    0.7   -2.3
H     8.6   -4.3    2.3
H    -7.6   -4.5    4.6
C    -8.5   -4.4    2.7
H    -5.0   -1.8    8.5
H    -8.1   -5.4    2.4
H    -3.6   -6.2   -7.0
H     1.1    5.2    8.5
P     0.5   -4.5   -8.9
N     8.6   -4.5   -2.8
P     5.1    8.4   -2.3
H    -3.3   -0.8   -9.6
N     0.6    6.0    8.2
H     1.6   -9.8    1.9
I     8.8    3.3   -3.8
H     5.5   -1.0    8.5
I     8.9    3.1    4.1
P     5.2    8.6    2.1
I     3.0   -9.1   -3.7
I    -6.6   -2.5   -7.5
P    -4.0    3.5   -8.9
I     1.3   -7.1   -7.4
N    -8.4    6.0    0.1
P    -4.0   -6.9    6.6
I    -3.1    5.9    7.9
I     3.5   -8.9    4.1
H    -7.9    6.8   -0.2
H    -0.3    6.0    8.5
C    -8.4    6.0    1.6
H     8.3   -5.3   -3.3
H     5.6   -2.7    8.5
N    -8.6   -4.4    4.2
I     2.3   -6.4    8.0
I    -9.2    3.1    4.1
H     0.9  -10.5   -0.2
H     1.1   10.2    2.4
H    -9.0    5.1    2.0
H    -8.0   -0.1   -6.9
I    -9.3    3.3   -3.8
I     6.9    1.4    7.9
I    10.5   -1.6    0.1
H     8.7    6.1   -0.2
I    -6.5    2.8    7.9
H     9.1    5.1    2.0
H    -0.1  -10.5    2.0
H     1.5   10.3   -2.2
H    -9.0   -3.5    4.5
P    -8.5    0.7    6.5
H    -8.0    1.6   -6.9
H     4.0   -7.1   -7.0
H     0.1   -8.7    6.3
I    -6.7    3.9   -7.4
H    -9.5   -4.3    2.3
P     5.0   -6.9    6.6
H     9.1   -3.5    4.5
P     5.1    3.5   -8.9
I    -2.3   10.6    0.1
H     5.5   -6.2   -7.0
H    -0.6   10.3   -3.3
P     0.5   -4.5    9.9
I     6.9   -3.8   -7.5
N    -9.5   -4.5   -2.8
C     9.6   -4.4    2.7
I    -6.3    8.9    0.1
H    -3.5    7.7   -7.0
N    -4.1   -7.1   -7.3
H     1.1    6.9    8.5
I   -11.0    1.0    0.0
I   -10.2   -1.1    4.1
I     6.0   -9.3    0.0
H    -9.9   -3.6   -3.2
H    10.2   -3.6    2.4
H     3.9   -2.2  -10.2
H    -9.9   -4.6   -1.8
H    10.3   -3.5   -2.1
H     8.6    0.8   -7.0
H    -3.7   -3.2  -10.0
H    -3.6   -7.9   -7.0
N    -3.4   -1.1  -10.5
H    -5.1   -7.1   -7.0
P    -4.0    3.4    9.9
H     5.7   -0.8   -9.6
I   -10.4   -1.3   -3.8
P     0.4   -9.7   -5.6
N    -8.5    0.8   -7.3
H    -0.8   11.0   -1.8
H    -9.4    6.1   -0.2
I    -7.7   -1.9    8.1
H    -2.5   -1.3  -10.9
I    -5.6   -8.9    4.1
H    10.1    5.1   -0.2
I     7.5   -7.4    4.2
H    -8.7    6.9    2.0
N     5.0   -7.1   -7.3
C    10.1   -4.4   -2.7
H     0.1   10.4    4.5
N     9.6   -4.4    4.2
I     1.5    8.5   -7.4
H     9.0   -5.2    4.5
I    11.1    2.6   -0.0
H    -7.3    6.0    6.4
N     9.7    6.0    0.1
H    -9.1   -5.2    4.5
N    -0.3   11.1   -2.8
I     7.6   -7.7   -3.8
H    -0.4   11.3    2.3
C     0.7   11.2    2.7
I    -6.1   -9.1   -3.7
C     9.8    6.0    1.6
I     6.0    5.9    7.9
I    -0.3   -2.2  -11.3
I     7.0    5.4   -7.5
P    -3.9    8.7    6.6
C     1.1   11.2   -2.7
P     5.1    3.4    9.9
H    -5.2   -2.2  -10.2
H    10.0   -5.4    2.4
H    -9.8   -5.3   -3.3
C    -4.2   -2.4  -10.6
I     6.9   -4.9    8.0
H     1.6   -9.6    6.4
P     9.7    0.7    6.5
I     7.7    7.9   -3.8
C     0.6   -9.6    6.7
H    -7.4    0.7   -9.1
H    -3.9   -0.4  -11.0
P    -8.5    5.9   -5.6
I    -1.6    3.0  -11.3
H     4.1    8.5   -7.0
H    -9.5    0.8   -7.0
H     5.4   -3.2  -10.0
H     5.6    7.7   -7.0
H     9.4    6.9    2.0
H     1.5    1.0   11.7
H     5.5   -7.9   -7.0
C     4.8   -2.4  -10.6
H    -4.5   -6.1   -9.2
H    10.5   -4.3   -3.7
I     7.6    8.2    4.2
H    -8.0   -8.8   -0.2
H     4.5   -6.1   -9.2
N    -4.0    8.6   -7.3
H    10.5   -5.3   -2.2
N     0.6   11.2    4.2
H    -3.0   -7.1   -9.1
I     3.5    1.5  -11.4
I    -1.4   -2.5   11.7
N     5.6   -1.1  -10.5
C    -4.1   -7.1   -8.8
H     1.5   11.3   -3.7
H     0.0    5.1  -10.9
H    -8.9    5.2    6.3
H    -3.9  -11.3   -1.3
P     5.2    8.7    6.6
H    -4.9    8.5   -7.0
N     9.6    0.8   -7.3
H    -0.7   -0.1   12.1
H     1.6   11.1    4.6
H     5.1   -0.4  -11.0
C    -8.4    0.8   -8.8
H    -3.5    9.4   -7.0
H     0.1  -10.5    6.3
H    10.1   -0.1   -6.9
H     1.0   -8.8    8.5
C    -8.3    6.0    6.7
H    -4.0  -10.8    4.4
I    -6.7   -6.4    8.0
H    10.3    6.8   -0.2
H     9.2    5.2    6.3
H    10.5   -4.5    4.6
I    -1.3    4.0   11.6
H     1.3   12.0    2.4
H    -0.8    1.6   12.2
C     5.0   -7.1   -8.8
H    10.1    1.6   -6.9
N     5.1    8.6   -7.3
H     1.4   12.1   -2.1
H    10.8    5.8    1.9
I     4.3   10.9    4.2
I     2.5    9.2    8.0
H    -0.7   12.0   -3.2
H   -12.1   -2.0    2.1
H     1.5    5.9  -10.9
I    -4.5    0.7   11.6
I     4.5    0.7   11.6
H    -7.5   -9.8    1.9
I     6.7   10.6    0.1
H     5.2  -11.3   -1.3
I    -4.5   11.1   -3.8
H    -8.8   -8.7    2.0
I    -4.8   10.9    4.2
I   -11.5   -5.1    0.1
P     9.6    5.9   -5.6
H   -12.6   -1.1   -0.1
I     4.6   11.1   -3.8
N     0.5   -9.6    8.2
I    11.9    0.1    4.1
H     5.1  -10.8    4.4
N    -0.4    0.8   12.7
H    -4.3   -2.7  -11.6
H   -12.4    2.7   -1.2
I     2.8   -5.1  -11.3
N     0.6    5.9  -11.2
I    -5.5    1.5  -11.4
H    -7.9    5.2    8.5
I     3.1   -3.8   11.8
H    -2.5  -11.7    4.5
H    -4.5    7.7   -9.2
H     4.6    7.7   -9.2
I    12.2    0.0   -3.8
H    -2.9    8.5   -9.1
H    -9.0   -0.1   -9.2
H    -0.5   -9.6    8.5
C     1.1    0.9   12.7
I    -2.2  -10.2   -7.5
H    -3.2  -11.9   -3.5
H     8.6   -9.5   -0.2
H     6.6   -1.3  -10.9
I    -7.7   -7.1   -7.4
H    -8.9    1.7   -9.1
H     4.8   -2.7  -11.6
H     0.1    6.8  -10.9
H    -8.8    6.9    6.3
H     9.3   -8.7    2.0
N    -8.6   -9.6    0.1
C    -3.9    8.6   -8.8
I    -3.2   -9.7    7.9
H     4.4   -7.9   -9.2
