         400
 sphere cut out from bulk 
P    -0.1    0.0    0.0
I     2.5    0.5   -2.0
I     0.6   -3.1    0.1
I     1.8    0.5    2.6
I    -0.7    3.2   -0.1
I    -1.9   -0.5   -2.6
I    -2.7   -0.5    1.9
H     0.1   -2.3    3.2
H    -0.3    2.3   -3.2
H    -0.4   -2.3   -3.5
H     2.7    3.2    0.4
H    -3.1    2.9    0.5
H     3.1   -3.2    0.6
H    -3.2   -3.1   -1.0
H    -4.3    1.7    0.7
H     4.1   -2.2   -1.3
C    -0.3   -3.2    3.7
C     0.1    3.2   -3.7
H     4.5    1.7    0.7
H     1.2    3.2   -3.6
H    -4.2   -2.4    1.0
N    -4.1    2.7    0.8
H    -1.4   -3.2    3.6
H    -0.8    2.3    4.3
N     0.0   -3.1   -4.0
C     3.7    3.5    0.1
H     3.8    3.2   -1.0
H     1.1   -3.1   -3.9
H     0.1   -4.0    3.2
H    -0.3    4.1   -3.2
H     4.6   -2.4    1.0
N     4.2   -3.2    0.5
H    -0.4   -4.0   -3.5
H     1.5    2.9    4.2
H    -4.7   -2.2   -1.3
C    -4.3   -3.1   -0.9
H    -4.1    2.9    1.8
N     4.7    2.7    0.8
C     4.5   -3.1   -0.9
N    -4.6   -3.2    0.5
H     4.7    2.9    1.8
C    -0.5    3.2    4.8
H    -0.6    4.1    4.1
H     4.1   -4.0   -1.4
H    -4.2   -4.0    1.0
H     3.9    4.5    0.2
H    -5.0    3.2   -1.0
N     1.0    3.1    5.1
N    -0.0   -3.2    5.1
N    -0.2    3.2   -5.1
H     0.2    2.4   -5.6
H    -0.4   -2.4    5.6
C    -5.1    3.5    0.1
H     4.6   -4.0    1.0
C    -0.4   -3.1   -5.4
H     1.0   -3.2    5.3
P     4.3    0.1   -4.5
H     0.0   -2.2   -5.8
H     1.1    2.2    5.7
H    -1.2    3.2   -5.2
P    -0.1   -6.3   -0.0
P     4.3   -0.1    4.6
H    -4.7   -4.0   -1.4
P    -0.1    6.3   -0.0
P    -4.5    0.1   -4.5
H     5.7    2.9    0.5
H    -1.5   -3.1   -5.4
I     6.1   -0.5    1.9
P    -4.5   -0.1    4.6
H     5.6   -3.1   -1.0
H    -5.7   -3.2    0.6
I     3.6   -3.1   -4.6
I    -2.0   -5.7   -2.6
I     1.8    5.9    2.5
I    -2.6   -5.8    1.9
I    -6.3    0.5   -2.0
H    -4.9    4.5    0.2
I     3.6   -3.2    4.7
I    -4.0    3.1    4.4
I     2.3    6.0   -2.1
H    -1.0    3.4    5.8
I     1.7    0.5   -6.5
I    -2.0   -0.6    6.5
H    -0.4   -4.0    5.6
I    -3.8    3.2   -4.8
H     0.2    4.1   -5.6
H    -6.1    3.2    0.4
H     1.4    3.9    5.6
H     0.0   -4.0   -5.9
I     4.8    3.1    4.4
I     2.3   -6.7   -2.1
I     6.9   -0.5   -2.6
I     1.8   -6.7    2.5
I    -7.0    0.5    2.6
I     2.3    0.4    7.1
I    -5.2   -3.1   -4.6
I    -2.7    6.8    1.9
I     5.0    3.2   -4.8
I    -2.0    6.9   -2.6
I    -2.7   -0.4   -7.2
I    -5.2   -3.2    4.7
I     8.1    3.2   -0.1
I     6.1   -5.8    1.9
P     8.7    0.0    0.0
H     7.4   -3.2    3.6
I    -8.2   -3.1    0.1
P     4.3   -6.3    4.5
P     4.3   -6.3   -4.5
P    -8.9    0.0    0.0
P     4.3    6.3    4.5
P     4.2    6.3   -4.5
H    -7.3    2.9    4.2
P    -4.5   -6.3    4.5
H    -7.6    3.2   -3.6
P    -4.5    6.3    4.5
I    -2.0   -5.9    6.5
P    -4.5   -6.3   -4.5
H     3.9   -8.1    0.2
I     1.8    5.8   -6.6
P    -4.5    6.3   -4.5
I    -6.5    6.0   -2.1
H    -4.2    2.5   -7.7
P    -0.2   -0.0    9.1
H    -0.3   -8.6   -3.2
P    -0.1    0.1   -9.2
H     4.1   -2.3    7.9
H     0.1    8.6    3.2
H     3.0    3.2   -8.1
H    -7.7   -3.1   -3.9
I     6.8   -5.7   -2.6
H     4.6    2.5   -7.7
H    -0.4    8.7   -3.5
H    -4.2   -2.2   -8.0
H     8.0    2.3    4.3
H     8.5    2.3   -3.2
I     6.1    6.8    1.9
H    -3.2   -3.2    8.3
H     8.4   -2.3   -3.5
I     2.4    5.8    7.1
I     6.8   -0.6    6.5
H    -4.7   -2.3    7.9
H    -4.9   -8.1    0.2
I     6.1   -0.4   -7.2
H     3.1   -3.0   -8.4
I    -0.7   -9.5   -0.1
H    -0.6   -8.5    4.1
I    -7.0    5.9    2.5
H     4.6   -2.2   -8.0
I    -0.8    3.1    9.0
I     0.6    9.5    0.1
I    -6.5   -6.7   -2.1
H    -8.7   -2.3    3.2
I    -2.0    6.7    6.5
I     0.6   -3.1   -9.1
I    -6.5    0.4    7.1
H    -4.2    8.6    1.0
H     7.3   -3.1   -5.4
I     1.8   -6.8   -6.6
I    -7.1    0.5   -6.5
H     4.1    8.6   -1.4
I    -2.7   -5.8   -7.3
H     8.9   -2.3    3.2
H     4.1   -4.0    7.9
C     8.5   -3.2    3.7
H     7.6    3.2   -5.2
I     0.6   -3.2    9.2
H     4.6    8.6    1.0
C     4.0    2.8   -8.5
H     2.7   -9.4    0.4
N    -7.8    3.1    5.1
H    -7.7    2.2    5.7
C     3.7   -9.1    0.1
H    -4.2   -3.9   -8.0
C    -4.3   -3.2    8.3
I     9.4   -3.1    0.1
I    -0.7    3.2   -9.3
H    -7.8   -3.2    5.3
H    -4.7    8.6   -1.4
H    -9.1    2.3   -3.2
C    -8.7    3.2   -3.7
H     8.4   -4.0   -3.5
N     4.2   -3.0   -8.5
H     3.1    9.4    0.6
H     8.5    4.1   -3.2
C     4.5   -3.2    8.3
H     3.8    2.0    9.0
I     6.8    6.9   -2.6
H    -4.7   -4.0    7.9
H     4.6   -3.9   -8.0
I    -7.0   -6.7    2.5
I    -9.5    3.2   -0.1
H    -7.4    3.9    5.6
H    -9.2   -2.3   -3.5
H    -3.2    9.5   -1.0
H     8.2    4.1    4.1
H    -3.3    3.6    8.8
N    -8.8   -3.1   -4.0
H    -8.7   -4.0    3.2
C     0.1   -9.4   -3.7
I     2.4   -6.9    7.1
C     8.3    3.2    4.8
N    -4.6   -3.0   -8.5
C    -0.4    9.5    3.7
N     8.8   -3.1   -4.0
C     8.9    3.2   -3.7
C    -4.8    2.8   -8.5
H     3.8   -9.4   -1.0
H     1.2   -9.5   -3.6
H    -1.4    9.5    3.6
H     0.2   -8.6   -5.6
H    -3.1   -9.7    0.5
H     3.8    2.1   -9.3
H    -0.4    8.6    5.6
H     8.9   -4.0    3.2
N     0.0    9.5   -4.0
H     4.0    4.3    8.4
H     7.8    3.4    5.8
H     1.1    9.5   -3.9
I    -2.7    6.8   -7.3
N     4.2    9.5    0.5
C    -9.1   -3.2    3.7
H     8.4   -2.4    5.6
H    -4.0    4.8   -8.4
H     1.4   -8.7    5.6
H     0.0    8.6   -5.9
H    -9.1    4.1   -3.2
C    -5.1   -9.1    0.1
H     5.6   -3.2    8.3
C     8.4   -3.1   -5.4
C    -4.3    9.5   -0.9
H    -5.8    3.2   -8.1
H    -5.0    2.0    9.0
N     8.6    3.2   -5.1
H    -8.6    2.4   -5.6
N    -4.6    9.5    0.5
C    -0.4   -9.4    4.8
C     4.5    9.5   -0.9
H    -9.2   -4.0   -3.5
H    -5.7   -3.0   -8.4
H    -4.8    4.3    8.4
N     8.8   -3.2    5.1
H    -3.2    3.8   -9.4
H    -5.0   -9.4   -1.0
N    -8.8   -3.2    5.1
P     8.7   -6.3   -0.0
H    -5.0    2.1   -9.3
P     8.6    6.3   -0.0
N    -0.2   -9.4   -5.1
H    -4.1   -9.7    1.8
N    -0.0    9.4    5.1
H     1.5   -9.8    4.2
H     4.8    4.8   -8.4
H    -8.8   -2.2   -5.8
N    -4.2    4.0   -9.1
N    -4.1   -9.9    0.8
H     3.1   -3.2    9.9
H     8.8   -2.2   -5.8
H    -9.6    2.3    4.3
N    -4.2    3.9    9.2
H     8.4   -4.0    5.6
H    -1.2   -9.4   -5.2
H     1.0    9.4    5.3
N    -9.0    3.2   -5.1
H    -0.3  -10.3   -3.2
H     9.0    2.4   -5.6
H     0.1   10.4    3.2
H    -1.0   -9.2    5.8
C     3.9    2.7    9.8
N     1.0   -9.6    5.1
H    -0.4   10.3   -3.5
P    -8.9   -6.3   -0.0
I    10.6    0.5    2.6
C    -9.3    3.2    4.8
H    -3.2   -3.0  -10.0
H     4.7   -9.7    1.8
C    -0.4    9.5   -5.4
P    -8.9    6.3   -0.0
N     4.6    4.0   -9.1
N     4.6    3.9    9.2
H    -8.6    4.1   -5.6
H     2.9    3.0   10.2
H    -9.4    4.1    4.1
N     4.7   -9.9    0.8
H    -5.7    9.4    0.6
H     5.5    3.6    8.8
H    -9.2   -2.4    5.6
P    -0.1    6.3    9.1
H     9.9   -3.1   -3.9
I   -10.7   -0.5   -2.6
N     4.1   -3.2    9.8
H    -1.5    9.5   -5.4
C    -9.2   -3.1   -5.4
P    -0.1   -6.4    9.1
H     5.6    9.5   -1.0
H    10.0    3.2   -3.6
I     6.8   -5.9    6.5
P    -0.1   -6.2   -9.2
I     3.6    9.4    4.7
I     6.1   -5.8   -7.3
I    -6.4    5.8    7.1
H    -4.2   10.3    1.0
I     3.6    9.5   -4.6
I    -4.0   -9.5    4.4
P    -0.1    6.4   -9.2
H    -0.8  -10.3    4.3
H    -6.1   -9.4    0.4
I    -3.8   -9.4   -4.8
C    -4.3   -3.0  -10.0
C    -4.9    2.7    9.8
H     4.1   10.4   -1.3
N    -4.7   -3.2    9.8
H   -10.2   -3.2    3.6
H     4.6   10.3    1.0
H     5.7   -9.7    0.5
H    -8.8   -4.0   -5.9
I    -7.0    5.8   -6.6
H     8.8   -4.0   -5.9
H    -4.3   -2.3   10.2
C     4.5   -3.0  -10.0
H     9.0    4.1   -5.6
H     4.1   -2.1  -10.4
I    -2.7   -0.5   11.1
I     2.4    0.5  -11.2
I    11.2    0.5   -2.0
H     4.5   -2.3   10.2
N     9.8    3.1    5.1
I     4.8   -9.5    4.4
H    10.3    2.9    4.2
H    -9.2   -4.0    5.6
H    -4.7   10.4   -1.3
H     4.1    4.4   -9.9
I     6.8    6.7    6.5
H     9.8   -3.2    5.3
H     5.6    3.8   -9.4
H    -4.7   -2.1  -10.4
I   -11.5   -0.5    1.9
H    -4.0    4.6    9.9
H    -4.3    2.4   10.6
I     5.0   -9.4   -4.8
I     6.1    6.8   -7.3
H     0.2  -10.3   -5.6
H     9.9    2.2    5.7
H    -0.4   10.3    5.6
I    -6.4   -6.9    7.1
I    -5.2    9.4    4.7
H   -10.0    3.2   -5.2
H     4.5    2.4   10.6
H    -4.2  -11.0    0.7
I    -5.2    9.5   -4.6
H    -4.3   -4.0   10.2
I    -7.0   -6.8   -6.6
H    -4.7    4.4   -9.9
H    -5.7   -3.2    9.9
H    -9.8    3.4    5.8
I     1.7    0.4   11.7
H     4.1   -3.9  -10.4
H     4.5  -11.0    0.7
H     5.6   -3.0  -10.0
H     4.5   -4.0   10.2
H     1.2  -10.4    5.7
H     4.8    4.6    9.9
I    -2.0   -0.4  -11.8
H    11.5    3.2    0.4
H     0.0   10.4   -5.8
H   -10.3   -3.1   -5.4
H    -4.7   -3.9  -10.4
H    -5.9    3.0   10.2
H    -4.0   -7.9   -8.4
H    10.2    3.9    5.6
H   -11.9    2.9    0.5
H     4.1    8.6    7.9
H    11.9   -3.2    0.6
I    10.6    5.9    2.5
I    10.5    0.5   -6.5
H   -12.0   -3.1   -1.0
I     8.0    3.1    9.0
I     8.1   -9.5   -0.1
H     4.8   -7.9   -8.4
H     4.0   -8.3    8.4
H     8.5   -8.6   -3.2
H     7.4    9.5    3.6
I   -10.8   -5.7   -2.6
I     2.5  -12.1   -2.0
I    -2.7   12.1    1.9
H    -4.7    8.6    7.9
H     8.2   -8.5    4.1
P     8.6   -0.0    9.1
H     8.4    8.7   -3.5
I    -8.2    9.5    0.1
I     1.8  -12.2    2.6
I    -2.0   12.2   -2.6
P     8.7    0.1   -9.2
P    -0.0  -12.6    0.0
H    -4.3    8.7   -8.0
I    -8.2   -3.1   -9.1
H    -7.6   -9.5   -3.6
I   -10.8   -0.6    6.5
H     0.0   -2.3   12.4
H    -8.7    8.6    3.2
P    -0.1   12.7    0.0
