         400
 sphere cut out from bulk 
H     0.4    0.6   -1.6
I    -0.5   -1.6    0.9
C     1.0   -0.1   -2.2
H     1.7   -0.8   -1.6
H     0.3   -0.8   -2.8
P    -3.2    0.2    0.7
I    -1.3    3.0    0.8
H     0.7   -1.0    3.2
H     1.6    1.3    3.0
N     1.8    0.6   -3.2
I     3.2    2.1    0.5
H     2.5    1.2   -2.7
I    -3.0    0.4   -2.5
H    -0.0    1.3    3.8
C     1.0    1.0    3.9
H     1.2    1.2   -3.8
N     1.1   -0.5    4.0
H     2.3   -0.0   -3.8
P     1.3   -4.3    0.7
H    -2.0   -3.3   -2.6
H     2.1   -0.8    4.1
I     4.0   -2.5    0.7
H    -2.7    3.9   -1.2
H     0.6   -0.8    4.8
P     1.4    4.7    0.7
I    -3.2    0.2    3.9
I     1.4   -4.2   -2.5
H     1.5    1.4    4.8
I    -4.9   -2.5    0.7
H    -2.4   -3.4    3.8
H    -2.3    4.4    2.7
I     1.5    4.9   -2.5
C    -2.8   -4.0   -3.0
H    -3.6   -3.5    2.7
H    -4.0   -3.9   -1.2
P     5.8    0.2    0.7
H    -2.4   -4.6    2.7
N    -3.4    4.4   -1.8
I     1.3   -4.3    3.9
H    -4.1    3.8   -2.2
H    -2.8   -5.1   -1.2
N    -3.0   -4.0    3.3
H    -2.2    4.3   -3.6
I    -0.3    2.3   -5.6
N    -3.5   -4.6   -1.8
H    -3.5   -3.4   -3.6
I    -5.8    2.1    0.5
I    -1.0   -2.2   -5.7
I    -1.4   -6.0    0.8
I     1.4    4.7    3.9
H    -2.3   -4.7   -3.6
P    -2.9    0.4   -5.6
I     5.9    0.4   -2.5
H     5.0   -3.9   -1.2
C    -2.7    5.1   -3.0
H     4.8    3.8   -2.2
H    -3.9    5.1   -1.2
H    -1.9    5.8   -2.6
H    -4.3    3.5    3.6
N    -2.9    5.0    3.3
H    -3.0    3.5    4.8
I     3.4   -1.5   -5.6
H     4.6    3.5    3.6
I     5.7    0.2    3.9
H     5.3   -3.5    2.7
C    -3.7    4.1    4.2
H    -3.5    5.6    2.7
H    -4.2   -5.3   -2.2
H    -6.5    1.2   -2.7
P     1.5   -4.1   -5.7
H    -2.3    5.6    3.8
I    -0.6   -1.7    7.0
H     5.1    5.1   -1.2
N     5.6    4.4   -1.8
H     5.4   -3.4   -3.6
N     5.5   -4.6   -1.8
H     4.8   -5.3   -2.2
H     6.2    3.9   -1.2
I    -0.4    7.4    0.9
H    -3.4    5.6   -3.6
C    -3.8   -4.9    4.2
H    -7.3   -0.8   -1.6
I     3.1   -6.9    0.5
H    -6.6   -0.0   -3.8
P     1.6    4.9   -5.7
I     4.2    3.1   -5.7
I    -1.3    2.8    7.1
P    -3.2    0.2    7.1
I     4.1    6.5    0.7
H    -4.4   -4.3    4.8
N    -7.1    0.6   -3.2
H     4.6   -4.3    4.8
H     0.4    0.5   -7.9
C     6.2   -4.0   -3.0
C     5.3    4.1    4.2
N     6.0   -4.0    3.3
H    -3.1   -5.5    4.8
H    -4.4   -5.5    3.6
H    -6.9   -0.8    4.1
H     4.5   -5.5    3.6
I    -4.7    3.1   -5.7
I     3.2    2.1    7.0
H    -7.4    1.3    3.0
I    -5.5   -1.5   -5.6
H    -4.3    4.8    4.8
H     6.9   -3.3   -2.6
H     6.1   -5.1   -1.2
H     1.7   -0.7   -7.9
I    -4.8    6.5    0.7
I     7.6    3.0    0.8
H     5.4    5.6    2.7
H     4.6    4.8    4.8
C    -7.9   -0.1   -2.2
P     6.0    0.4   -5.6
C     5.2   -4.9    4.2
H     6.6   -3.4    3.8
H     6.6    4.4    2.7
P     1.3   -4.4    7.1
H     5.9    3.5    4.8
H     1.5   -7.8    3.0
H     6.6   -4.6    2.7
I     3.9   -2.5    7.1
N     6.1    5.0    3.3
C     1.0   -0.1   -8.5
H     2.4   -7.8   -2.7
C     6.3    5.1   -3.0
P     1.4    4.7    7.1
H     1.8    8.3   -1.6
H     0.3   -8.5   -1.6
H    -0.1   -7.8    3.8
I     8.4   -1.6    0.9
H     5.5    5.6   -3.6
H    -8.5    0.6   -1.6
H    -7.7    1.2   -3.8
H     0.7    8.1    3.2
H     0.4    8.3   -2.8
H     1.1   -7.8   -3.8
I    -0.4   -6.7   -5.6
H     6.8    4.3   -3.6
P    -7.6   -4.3    0.7
N    -7.8   -0.5    4.0
C    -7.9    1.0    3.9
H    -2.8   -2.9   -8.0
H     6.7   -4.7   -3.6
H    -8.3   -1.0    3.2
P    -7.5    4.7    0.7
I    -7.5   -4.2   -2.5
H    -7.4    1.4    4.8
I    -0.9    6.9   -5.7
C     0.9   -8.1    3.9
I    -5.1   -2.5    7.1
P     5.7    0.2    7.1
I    -5.9   -6.9    0.5
H     1.4   -7.6    4.8
H    -8.6   -0.8   -2.8
N     1.7   -8.4   -3.2
H     0.4   -0.8   -9.1
H     0.8    0.9    9.1
I    -7.4    4.9   -2.5
C     1.1    8.9   -2.2
I     4.1   -6.0   -5.7
I    -5.7    2.1    7.0
I    -2.9    0.4   -8.9
H     2.4    1.4   -8.9
H     5.8   -5.5    4.8
H     2.0   -0.4    9.1
H     2.2    8.2    4.1
P    -3.3   -8.8    0.7
H     7.0    5.8   -2.6
C     0.9   -9.2   -2.2
N     1.2    8.5    4.0
H    -3.6    3.9   -7.9
H     9.4    0.6   -1.6
I    -3.1   -8.7   -2.5
I    -1.4   -6.2    7.1
H     6.7    5.6    3.8
H     0.7    8.2    4.8
I    -4.8   -6.0   -5.7
I    -7.6   -4.3    3.9
I    -9.4   -1.6    0.9
N     1.8    0.7   -9.4
H     9.2   -0.8   -2.8
I     7.5   -6.0    0.8
H    -8.4   -0.8    4.8
I    -7.5    4.7    3.9
H    -2.1    3.9   -8.7
H     0.5    9.6   -1.6
P    -3.1    9.3    0.7
H     8.9    1.3    3.8
H    -8.9    1.3    3.8
I     1.5   -4.1   -8.8
C     1.5    0.3    9.7
I     7.9   -2.2   -5.7
C    -3.2   -3.3   -8.8
H     1.6   -9.8   -1.6
I     3.5    7.6   -5.6
H     2.2   -9.0   -3.8
H     2.4    9.0   -3.8
H    -3.7   -5.1   -7.9
H     9.6   -1.0    3.2
I    -2.9    9.4   -2.5
I    -0.5    7.3    7.0
H    -2.3    4.3    8.9
C     9.9   -0.1   -2.2
N    -3.1    4.2   -8.7
H     0.2   -9.8   -2.8
H     1.2    1.3  -10.0
I    -3.3   -8.8    3.9
P    -7.5   -4.1   -5.7
I     1.6    4.9   -8.8
H    -3.6   -3.5    8.9
H    -2.2   -5.1   -8.7
H     5.4    3.9   -7.9
H     2.4    0.1  -10.1
H    -4.3   -3.0   -8.9
I     3.1   -6.9    7.0
N     1.9    9.7   -3.2
N     1.0   -9.5    4.0
H    -2.4   -4.8    8.9
H    -2.7    6.2   -8.0
H     2.2    1.0   10.2
N    -3.2   -4.8   -8.7
H     6.2   -2.9   -8.0
I    -3.1    9.2    3.9
I     4.0    6.6    7.1
H     0.6  -10.0    3.2
P     5.7   -8.8    0.7
H     4.7   -3.0   -8.9
P    -7.4    4.9   -5.7
H    -6.6   -7.8   -2.7
H    -2.7   -3.0   -9.7
I     8.7    2.3   -5.6
H     0.1   -1.0   10.5
I    -0.6  -10.7    0.9
H     9.5   -0.8    4.8
I   -10.3    3.0    0.8
I     5.8   -8.7   -2.5
P    -3.0   -8.6   -5.6
H    10.6   -0.8   -1.6
I     6.1    0.4   -8.9
H    -7.3   -0.7   -7.9
C    10.0    1.0    3.9
I    -3.3    0.1   10.2
H     5.3   -5.1   -7.9
C     1.1   10.0    3.9
I     7.7    2.8    7.1
N    10.0   -0.5    4.0
N    -3.0   -4.1    9.6
H     1.7   10.3    3.0
H     2.0   -9.9    4.1
H    -3.5    3.8   -9.6
I    -5.0    6.6    7.1
H    10.1    1.2   -3.8
H    -2.3   -3.5   10.0
I    -5.4    7.6   -5.6
N     0.8   -0.3   10.9
H     2.6   10.3   -2.7
H     0.1   10.3    3.8
C    -3.1    5.7   -8.8
P     5.9    9.3    0.7
H     1.3   10.2   -3.8
H     0.5   -9.9    4.8
H     5.4   -3.5    8.9
H    10.5    1.3    3.0
I    -9.2    2.3   -5.6
C     5.7   -3.3   -8.8
I     8.4   -1.7    7.0
H    -3.5    5.5    8.9
H    -7.2    8.3   -1.6
H    -6.5    1.4   -8.9
N    -2.9    4.9    9.6
P    10.2   -4.3    0.7
H    -7.4   -7.8    3.0
I     5.6   -8.8    3.9
I     1.1   -4.4   10.3
N    10.8    0.6   -3.2
P    -7.7   -4.4    7.1
I     1.2    4.6   10.3
I     8.5    7.4    0.9
P    -2.8    9.4   -5.6
N     5.9    4.2   -8.7
H    -6.8    8.2    4.1
P    -7.6    4.7    7.1
P    10.3    4.7    0.7
I     6.0    9.4   -2.5
I    10.4   -4.2   -2.5
H    -4.4    3.5   10.0
I    -5.8   -6.9    7.0
H    -3.6   -5.2   -9.6
H     0.3    0.4   11.5
H    -7.0   -0.4    9.1
H     4.6    3.5   10.0
N     5.8   -4.8   -8.7
N    -7.2   -8.4   -3.2
H    -4.2    6.0   -8.9
H    10.4    1.4    4.8
I     5.8    9.2    3.9
H     1.6   10.4    4.8
H     1.8    8.3   -7.9
I     3.3   11.1    0.5
H     0.3   -8.5   -7.9
H     1.4   -0.9   11.5
H    -8.5    0.5   -7.9
C    -7.9   -0.1   -8.5
H     5.4    3.8   -9.6
H    -2.2    5.5   10.0
I   -10.0   -2.2   -5.7
H    -7.8   -7.8   -3.8
I     5.7    0.1   10.2
H     6.8    3.9   -8.7
H   -11.0   -3.3   -2.6
H    -7.5   -7.6    4.8
H    -2.6    6.0   -9.7
H    -6.5    9.0   -3.8
H    11.0   -0.8    4.1
I    10.2   -4.3    3.9
H     4.8    6.0   -8.9
P    -3.3   -8.8    7.1
H    11.4    1.2   -2.7
I    10.5    4.9   -2.5
H     5.5    5.5    8.9
N    -7.1    0.7   -9.4
H     6.3    6.2   -8.0
H    -6.7   -9.0   -3.8
H     6.6    4.3    8.9
H    11.3   -0.0   -3.8
P     5.9   -8.6   -5.6
C    -3.7    4.1   10.5
H    -8.2    8.1    3.2
I    -9.5   -1.7    7.0
I    -9.3    7.4    0.9
H     6.3   -3.0   -9.7
H     2.3   -7.7   -8.9
I     8.0    6.9   -5.7
C    -8.0   -8.1    3.9
N     6.0   -4.1    9.6
H    -6.5    0.1  -10.1
I    10.3    4.7    3.9
P    -3.1    9.2    7.1
H     6.5   -4.8    8.9
I   -10.4   -6.0    0.8
C     5.8    5.7   -8.8
C    -7.9    8.9   -2.2
H    -3.0    3.5   11.1
I     7.6   -6.2    7.1
I    -1.2   12.0    0.8
P   -12.1    0.2    0.7
H     6.7   -5.1   -8.7
H     5.3   -5.2   -9.6
H    -8.6   -8.5   -1.6
N    -7.7    8.5    4.0
H    -8.5    8.3   -2.8
I   -12.0    0.4   -2.5
C    -3.8   -4.9   10.5
I     3.9  -11.5    0.7
H    -6.7    1.0   10.2
H     9.3    0.5   -7.9
I    -0.1    2.2  -12.0
H     4.5   -5.5   10.0
H    -4.5   -5.5   10.0
I     8.6   -6.7   -5.6
C    -7.4    0.3    9.7
H     0.7   -8.2    9.1
I    -7.5   -4.1   -8.8
H     0.5    8.2   -9.1
H    -8.2    0.9    9.1
I    12.1    2.1    0.5
N     6.1    4.9    9.6
C     1.1    8.9   -8.5
H   -11.2    4.4    2.7
I     3.3  -10.5   -5.6
H   -11.7    3.9   -1.2
H     8.8   -7.8    3.8
H    -7.4   -9.8   -1.6
N    -7.0    9.7   -3.2
H    -6.4   10.3   -2.7
H     0.5    9.5   -7.9
H   -11.3   -3.4    3.8
P    -2.9    0.5  -12.1
C    -8.0   -9.2   -2.2
I    -1.1   -2.2  -12.2
H   -11.1    4.3   -3.6
C     5.2    4.1   10.5
I    -5.7   11.1    0.5
I     3.3   -1.3  -12.0
H    -9.0   -7.8    3.8
H   -11.3   -4.6    2.7
H    -8.6   -0.8   -9.1
I    -7.4    4.9   -8.8
C     0.9   -9.2   -8.5
P    10.4   -4.1   -5.7
H     6.6   -3.5   10.0
H   -10.9    5.8   -2.6
P     6.1    9.4   -5.6
I    -5.0  -11.5    0.7
H    -8.3    8.2    4.8
I    -1.1  -11.2   -5.7
I    -0.2   11.3   -5.6
P     5.6   -8.8    7.1
H     9.3   -8.5   -1.6
