         400
 sphere cut out from bulk 
P     0.0    0.0    0.8
I    -1.2    2.1   -1.3
I    -1.2   -2.1   -1.4
I     2.5    0.1   -1.3
P     0.1    0.1   -3.4
I    -2.4   -0.0    2.8
I     1.2   -2.1    2.9
I     1.2    2.2    3.0
H    -3.6   -2.4   -0.5
H     4.1   -1.9   -0.6
H    -0.7    4.7    0.0
H    -3.6    2.6   -2.0
H     4.1    2.0   -2.0
H     0.4    4.5    2.2
H     3.7   -3.0    1.6
P    -0.1   -0.1    5.0
H    -0.7   -4.2   -2.6
H    -4.5   -1.6    1.7
H     1.0    5.1    0.0
N    -4.6   -2.6   -0.2
H    -3.8   -3.3    1.7
H     4.8   -1.6    1.7
N     4.7   -2.6   -0.2
C     0.0    5.4    0.4
C    -4.6   -2.6    1.3
C     4.7   -2.6    1.3
H    -5.2   -1.9   -0.6
H     4.4   -3.5   -0.6
N     0.0    5.4    1.9
H     0.5   -4.4    3.7
N    -4.6    2.7   -2.3
H    -5.2    2.0   -2.0
N     4.7    2.7   -2.3
I    -2.3   -0.1   -5.5
I     1.5   -1.9   -5.5
H     4.4    3.6   -2.0
I     1.2    2.3   -5.5
H    -0.9    5.5    2.3
N    -0.7   -5.1   -3.1
H    -4.9   -3.5   -0.6
H     3.0    2.7    4.6
H     5.7   -2.4   -0.5
H    -4.2    1.7   -4.2
H    -4.1    1.7    4.4
H     1.4   -5.2   -3.1
H     3.7    3.0   -4.2
H    -4.9    3.6   -2.0
H    -0.2    6.4    0.1
H     0.7   -4.5   -4.6
H    -0.8   -5.9   -2.5
H     5.7    2.6   -2.0
C    -4.5    2.7   -3.8
C     0.6   -5.3   -3.8
H    -5.6   -3.0    1.6
H     0.7    6.1    2.3
H     5.4   -3.3    1.7
H    -1.5   -5.2   -3.8
H    -3.8    3.5   -4.2
H    -0.8   -5.5    3.6
C     4.7    2.7   -3.8
N     0.2   -5.4    4.0
H    -4.1    3.5    4.0
H     5.0    1.7   -4.2
I    -6.8    0.1   -1.3
C    -4.2    2.7    4.8
H     5.2    1.7    4.4
I     3.7   -5.9   -1.3
I     3.6    5.9   -1.3
N     3.7    2.8    5.4
H     0.8   -6.1    3.7
H    -3.5    2.9    5.6
H     3.5    2.0    6.0
I    -3.2   -5.9    2.9
I    -3.3    6.0    2.9
H     5.2    3.5    4.0
I     6.9   -0.0    2.8
I    -1.2    2.0    7.1
I     2.4    0.0    7.1
C     5.1    2.7    4.8
H    -0.7   -4.7    5.8
I    -1.2   -2.2    7.1
H    -5.5    3.0   -4.2
P     0.1    0.1   -7.6
H     0.6   -6.3   -4.3
H    -3.8   -1.9   -6.4
C     0.1   -5.4    5.5
H     5.5    3.5   -4.2
H     0.4    4.5   -6.3
H     1.1   -5.0    5.9
H     3.8   -2.4   -6.4
H     3.6    3.7    5.9
I    -2.0   -7.9   -1.3
I    -5.6   -5.9   -1.3
N    -5.6    2.8    5.4
H    -6.3    2.7    4.6
I    -5.7    5.9   -1.3
H    -4.2   -3.5   -6.4
I     8.1    2.1   -1.3
H    -0.9    5.6   -6.3
I     8.1   -2.1   -1.4
N    -4.5   -2.6   -6.7
I    -2.2    8.2   -1.3
I    -3.4   -5.7   -5.4
N     0.1    5.4   -6.6
H     5.8    2.9    5.6
H    -5.7    2.0    6.0
H     5.4   -1.9   -6.4
H    -0.0   -6.4    5.8
N     4.8   -2.6   -6.7
H    -5.5   -2.4   -6.4
H     0.7    6.2   -6.2
I    -3.2    6.1   -5.5
I     2.4   -8.0    2.9
I     2.2    8.0    2.9
I    -8.1   -2.1    2.9
I     7.0   -0.1   -5.5
I    -8.1    2.2    3.0
H     5.1   -3.5   -6.4
I     6.0    6.0    2.9
I     6.1   -5.9    2.9
H    -5.7    3.7    5.9
P    -4.4   -8.0    0.8
P    -0.0   -0.0    9.2
P    -9.3    0.0    0.8
P    -4.6    8.1    0.8
P     9.3    0.0    0.8
P     4.9   -8.0    0.8
P     4.7    8.1    0.8
H    -3.7   -3.1    8.2
H     4.5   -1.7    8.2
H    -0.9    4.7    8.3
H    -0.1   -9.6    0.1
H     3.8   -3.3    8.2
I    -7.7   -1.9   -5.5
H    -4.8   -1.7    8.2
H    -8.3    5.1    0.0
C    -4.5   -2.6   -8.2
H    -3.5   -3.0   -8.6
I     3.4    5.9    7.0
H     0.9    5.0    8.4
H    -0.7    4.8   -8.5
C     0.1    5.5   -8.1
H     8.6    4.7    0.0
P    -4.5   -8.0   -3.4
P    -9.2    0.1   -3.4
I     5.9   -5.7   -5.4
H    -4.6   -1.5   -8.6
P    -4.6    8.0   -3.4
H     4.7   -1.5   -8.6
C     4.8   -2.6   -8.2
P     4.7    8.0   -3.4
I    -6.9    0.0    7.1
H     8.6   -4.2   -2.6
I     2.3    7.9   -5.5
I    -1.0   -2.0   -9.7
H    -7.9   -5.2   -3.1
H     1.1    5.1   -8.5
I     3.5   -6.0    7.1
P     4.8   -8.0   -3.4
H     4.0   -3.2   -8.6
P     9.4    0.1   -3.4
I    -1.1    2.2   -9.7
I    -8.1    2.3   -5.5
I     2.6    0.2   -9.7
C     4.6   -2.7    8.6
C    -4.7   -2.7    8.6
I     2.5   -8.1   -5.5
H     7.8   -5.2   -3.8
C    -0.1    5.3    8.7
H     0.8   -9.9    2.3
I     6.1    6.1   -5.5
H    -8.9    4.5    2.2
H     8.4    5.5    2.3
H     5.6   -3.1    8.2
P    -4.4   -8.0    5.0
H    -5.5   -3.3    8.2
H    -1.0   10.1   -2.5
P     9.2   -0.1    5.0
H    -0.3    6.4    8.4
H    -8.8   -4.4    3.7
N     8.6   -5.1   -3.1
P    -4.6    8.1    5.0
P     4.9   -8.0    5.0
P     4.7    8.1    5.0
H    -5.3   -3.2   -8.6
H     8.4   -5.9   -2.5
H     0.6   10.0    3.7
C     0.2  -10.6    0.4
H    -0.1    6.5   -8.5
P    -9.4   -0.1    5.0
H    -8.6   -4.5   -4.6
H     0.5    9.8   -4.3
C    -9.3    5.4    0.4
H     5.7   -3.0   -8.6
I   -10.5   -2.1   -1.4
H    -0.8  -10.5    2.3
H     8.5   -5.5    3.6
C     9.3    5.4    0.4
I   -10.5    2.1   -1.3
I     7.3   -7.9   -1.3
N     0.2  -10.7    1.9
H    -8.6    6.1    2.3
C    -8.7   -5.3   -3.8
I     3.5   10.2   -1.3
N    -9.3    5.4    1.9
I    -5.9    5.9    7.0
H     9.7    4.5    2.2
I     3.8  -10.1   -1.3
I    -3.1  -10.0    2.9
I    -5.8   -6.0    7.1
I     8.1    2.0    7.1
I     7.1    8.2   -1.3
I    -6.9   -8.0    2.9
N     9.3    5.4    1.9
I    -2.1   -8.0    7.1
H     1.2  -10.9    0.0
I    -2.3    8.0    7.1
H   -10.0    4.7    0.0
I     8.1   -2.2    7.1
H    -8.5   -6.1    3.7
I    10.5   -2.1    2.9
I    -3.4   10.2    2.9
I    -7.1    8.0    2.9
I    10.5    2.2    3.0
H     9.1    6.4    0.1
H    -1.0   10.5    3.6
H   -10.0   -4.2   -2.6
H    -8.2   -5.0    5.9
H    -0.2    9.7    5.8
N    -9.1   -5.4    4.0
H     1.3   10.8   -3.1
H     9.8   -4.4    3.7
H     3.7   -2.5   10.4
H    -4.0   -2.0   10.4
H    -0.5  -11.4    0.0
N    -0.9   10.9   -3.1
N     4.6   -2.7   10.1
N     0.0   10.7    4.0
H     0.2    4.4   10.5
N    -4.7   -2.7   10.1
C     0.5   10.8   -3.8
H     8.6   -4.7    5.8
H    -9.5    6.4    0.1
N    -0.1    5.3   10.2
H    -8.7   -6.3   -4.3
H    10.3    5.1    0.0
H     3.7    2.1  -10.8
N     9.5   -5.4    4.0
I    -2.5   -0.3   11.3
I     1.0    2.2   11.4
I    -5.5  -10.1   -1.3
I     1.4   -2.0   11.4
N   -10.0   -5.1   -3.1
H    -1.6   10.9   -3.8
H     0.9   -9.9   -6.2
I    -3.1  -10.0   -5.5
P     0.1    0.0  -11.8
H    -8.9    4.5   -6.3
I    -5.8   10.2   -1.3
H     0.5  -11.6    2.2
I    -6.7    0.2   -9.7
H   -10.2    5.5    2.3
P    -4.4   -7.9   -7.6
H    -4.4   -3.7   10.4
I    11.8    0.1   -1.3
H     5.3   -2.0   10.4
C     9.9   -5.3   -3.8
H     8.4    5.6   -6.3
H    10.0   -4.5   -4.6
H    -0.5   -4.6  -11.0
P    -9.2    0.1   -7.6
H    10.0    6.1    2.3
I    -7.0    7.9   -5.5
I     3.7   -5.9   -9.7
H    -1.1    5.5   10.5
C    -9.2   -5.4    5.5
I    -6.8   -8.1   -5.5
H   -10.1   -5.9   -2.5
C    -0.0   10.7    5.5
I    10.5    2.3   -5.5
P    -4.6    8.1   -7.6
I     3.6    6.0   -9.8
H     1.3   -4.9  -10.9
I   -11.7   -0.0    2.8
H   -10.1   -5.5    3.6
P     4.9   -7.9   -7.6
H    -3.3    3.0  -11.2
P     4.7    8.1   -7.6
H     4.9   -3.7   10.4
I     5.9   10.2    2.9
H    -0.9   11.8   -2.6
H    -5.6   -2.5   10.4
P     9.4    0.1   -7.6
I     6.1  -10.0    2.9
H     3.8    3.8  -10.9
I    -3.5   10.3   -5.4
C     9.4   -5.4    5.5
H     0.5    6.0   10.6
H     0.3   11.6    3.7
H    -0.7  -10.4   -6.3
I    10.8   -1.9   -5.5
H    -8.6    6.2   -6.2
H    10.7   -5.2   -3.1
H    -5.6    2.1  -10.8
H    10.1   -6.1    3.7
H     9.7    4.5   -6.3
N     3.9    2.9  -11.4
H     0.6   11.6   -4.6
C     0.3   -5.2  -11.3
H   -10.0   -4.7    5.8
H     9.9   -6.3   -4.3
N     0.2  -10.6   -6.6
H   -10.8   -5.2   -3.8
H     0.9   11.0    5.9
N    -9.2    5.4   -6.6
H     0.1   -6.3  -11.0
I    -5.6   -5.9   -9.7
I    -1.9   -7.9   -9.7
H     9.3   -6.4    5.8
N     9.4    5.4   -6.6
H    -9.3   -6.4    5.8
H     8.4    4.7    8.3
H     0.1   -9.6   -8.5
I     3.4   10.1    7.1
H    -0.8   11.3    5.8
H    -0.1   -9.7    8.4
I   -11.6   -0.1   -5.5
H    -5.5    3.8  -10.9
I    -2.1    8.1   -9.7
I     7.0    8.0    7.1
I    -5.7    6.0   -9.8
H    -8.4    5.0    8.4
I   -10.5   -2.2    7.1
I   -10.5    2.0    7.1
I     3.6  -10.2    7.0
H    -8.2    5.1   -8.5
I     8.3   -2.0   -9.7
I     8.2    2.2   -9.7
H     3.2    2.9  -12.2
I     7.2   -8.0    7.1
H    10.4   -5.0    5.9
I     6.2  -10.0   -5.5
C    -4.0    2.8  -12.0
H     8.6    4.8   -8.5
N    -5.4    2.9  -11.4
I     5.8   10.3   -5.4
P     4.6    8.0    9.2
H     6.0    3.0  -11.2
P    -4.5   -8.1    9.2
P    -4.7    8.0    9.2
P     9.3   -0.0    9.2
P    -9.3   -0.0    9.2
H     0.6   -4.6   12.3
P     4.7   -8.1    9.2
H     0.5  -11.5   -6.3
H   -12.9   -2.4   -0.5
H    -3.9    1.8  -12.4
H     4.2   12.5   -0.6
H   -10.2    5.6   -6.3
H    -8.5   -9.9    2.3
I    -3.4    6.0   11.3
I     6.8   -0.3   11.3
H    10.0    6.2   -6.2
I    -3.5   -5.9   11.4
H   -12.9    2.6   -2.0
H     8.3   10.1   -2.5
H     9.2   -9.6    0.1
C     0.2  -10.6   -8.1
H     4.5  -12.4   -2.0
C     5.3    2.8  -12.0
P    -0.1   -0.0   13.4
H    -9.3   -9.6    0.1
H    13.0   -3.0    1.6
H     3.6    2.9   12.6
H    12.3    2.7    4.6
H    -4.8  -12.4   -2.0
C    -9.2    5.5   -8.1
H    -4.0   12.7    1.7
H    -4.4    1.6   12.6
H    13.4   -1.9   -0.6
H    -5.1   12.5   -0.6
C     9.4    5.5   -8.1
H    -8.1  -10.9    0.0
H     3.5   13.0    1.6
I    -5.7  -10.2    7.0
H     4.9    1.6   12.6
H   -13.1   -3.3    1.7
H     5.4    1.8  -12.4
I    -5.9   10.1    7.1
H    13.4    2.0   -2.0
H    -4.0    3.4   12.7
H    -8.6   10.0    3.7
I    11.7    0.0    7.1
H     8.5  -10.5    2.3
H    -3.7  -12.6   -4.2
C     9.2    5.3    8.7
H    -3.9  -12.6    4.0
C     0.1  -10.7    8.7
I   -11.3   -7.9   -1.3
H    -8.0   10.8   -3.1
