         400
 sphere cut out from bulk 
H     1.7    0.2    1.5
I    -0.2    1.9   -1.2
P    -2.3   -0.6   -0.8
I     0.1   -2.7   -0.3
H     1.0   -1.2    2.4
C     1.8   -0.4    2.4
I    -2.4    0.0    2.4
H     1.2   -1.1   -3.0
H     1.7    0.2    3.3
H     3.3   -1.6    1.5
N     3.1   -1.0    2.3
H     2.8    0.7   -3.1
H    -0.6    3.7    2.3
C     1.8   -1.0   -3.9
H     1.4    1.0   -4.1
H    -1.7    2.7   -3.1
H    -1.2   -4.1    1.5
H    -2.8    3.2    1.5
H     3.9   -0.3    2.3
N     2.3    0.4   -4.0
I    -2.1   -1.0   -3.9
I     2.1    3.3    2.4
P     2.2    4.0   -0.8
I     4.3    1.5   -1.2
H     3.3   -1.6    3.2
H     2.7   -1.7   -3.7
I    -4.7    1.5   -1.2
H     1.3   -1.3   -4.8
N    -1.4    4.4    2.3
C    -2.7    3.8    2.4
H    -1.2   -4.1    3.2
I    -4.4   -3.0   -0.3
H    -1.2    5.0    1.5
H    -2.8    3.2    3.3
N    -1.4   -4.7    2.3
N    -2.2    3.0   -4.0
I     4.6   -3.0   -0.3
H     2.9    0.5   -4.8
H    -5.1   -0.3    2.3
P     2.2   -5.1   -0.8
H    -3.1    2.4   -4.1
I     0.1   -2.7    5.0
H    -1.8   -4.0   -3.7
H    -1.6    2.9   -4.8
H    -0.6   -5.4    2.3
P    -2.3   -0.6    5.5
H    -1.2    5.0    3.2
H    -5.7   -1.6    1.5
H    -3.5   -4.5    2.4
H    -3.5    4.6    2.4
I    -0.2    1.9    6.0
I     2.4    4.4   -3.9
I     0.1    6.4   -0.3
C    -2.7   -5.3    2.4
N    -5.9   -1.0    2.3
H    -3.3   -4.5   -3.0
H    -3.3    4.5   -3.0
C    -2.7    4.4   -3.9
I     2.4   -4.6   -3.9
H    -1.8    5.1   -3.7
I     2.1   -5.7    2.4
C    -2.7   -4.6   -3.9
H    -2.8   -5.9    1.5
H    -5.7   -1.6    3.2
P     6.7   -0.6   -0.8
I    -0.1    1.9   -6.6
H    -6.2    0.7   -3.1
I     6.6    0.0    2.4
H     6.2    3.2    1.5
P     2.2    4.0    5.5
H    -3.2   -4.4   -4.8
I    -0.2   -7.2   -1.2
H    -1.7   -6.4   -3.1
H    -2.8   -5.9    3.3
I    -4.4   -2.9    5.0
I     4.6   -2.9    5.0
P    -2.2   -0.6   -7.1
H    -3.2    4.7   -4.8
H    -7.3    0.2    1.5
H    -6.3   -1.7   -3.7
H     5.5   -4.5    2.4
I    -4.4    6.1   -0.3
I     4.3    1.5    6.0
N    -2.2   -6.1   -4.0
H     5.5    4.6    2.4
H     5.9    2.4   -4.1
C    -7.2   -0.4    2.4
I     4.6    6.1   -0.3
H     6.2    3.2    3.3
C     6.3    3.8    2.4
I    -4.7    1.5    6.0
H    -6.1    0.5   -4.8
P     2.2   -5.1    5.5
N    -6.7    0.4   -4.0
H     5.7   -4.5   -3.0
H     5.7    4.5   -3.0
P    -6.8    4.0   -0.8
I     6.9   -1.0   -3.9
I    -6.9    3.3    2.4
H    -1.6   -6.2   -4.8
H     1.2   -1.3    7.8
H    -7.3    0.2    3.3
I     0.1   -2.7   -7.6
I     4.4    1.5   -6.6
I     0.1    6.3    5.0
I    -4.6    1.5   -6.6
C    -7.2   -1.0   -3.9
H     1.0    7.9    2.4
H     3.3    7.5    1.5
H     2.8    0.5    7.8
H     7.3    2.7   -3.1
H    -8.0   -1.2    2.4
N     6.8    3.0   -4.0
H    -3.1   -6.7   -4.1
P     2.3    4.0   -7.1
H    -7.8   -1.1   -3.0
H    -1.7    2.9    7.8
P    -6.8   -5.1   -0.8
C     6.3   -5.3    2.4
H     1.2    7.9   -3.0
H     6.2   -5.9    1.5
C     6.3    4.4   -3.9
H     1.4    1.0    8.5
H    -7.6    1.0   -4.1
H     5.8   -4.4   -4.8
P     6.7   -0.6    5.5
H     2.7    7.4   -3.7
C     6.3   -4.6   -3.9
H     3.3    7.5    3.2
I     4.3   -7.6   -1.2
P    -2.3    8.5   -0.8
H     5.8    4.7   -4.8
N     2.2    0.4    8.6
I    -6.6    4.4   -3.9
H     7.8   -4.1    1.5
C     1.8   -1.0    8.7
N     3.1    8.1    2.3
I    -2.2   -1.0    8.7
I    -6.6   -4.6   -3.9
I    -4.7   -7.6   -1.2
P     2.3   -5.1   -7.1
H     7.2   -4.0   -3.7
I     8.8    1.9   -1.2
I    -4.4    6.1    5.0
C     1.8    8.0   -3.9
N     7.6    4.4    2.3
H     6.2   -5.9    3.3
H     1.7   -8.9    1.5
I     4.6    6.1    5.0
C     1.8    8.7    2.4
H    -7.7   -1.3   -4.8
H     1.4   -8.1   -4.1
I    -2.1    8.0   -3.9
H     1.3    7.8   -4.8
I    -4.4   -2.9   -7.6
I    -6.9   -5.7    2.4
H     7.4    2.9   -4.8
N     7.6   -4.7    2.3
I    -8.9   -2.7   -0.3
I     4.6   -2.9   -7.6
H    -3.1    2.4    8.5
H     2.8   -8.4   -3.1
H     7.8   -4.1    3.2
I    -0.2   -7.2    6.0
H     7.8    5.0    1.5
H     2.7   -1.7    8.9
N    -2.3    3.0    8.6
H     8.4    3.7    2.3
I    -9.2    1.9   -1.2
H     1.7    0.2   -9.3
I     9.1   -2.7   -0.3
H    -3.3   -4.4    7.8
H    -5.7    7.5    1.5
H     1.7    9.3    1.5
H     7.2    5.1   -3.7
P    -6.8    4.0    5.5
H     1.7   -8.9    3.3
I    -2.4   -9.0    2.4
H    -3.3    4.7    7.8
H     1.1   -1.1    9.6
I    -2.4    9.1    2.4
I    -0.1   -7.2   -6.6
H     7.8    5.0    3.2
N     2.3   -8.7   -4.0
H     5.9   -6.7   -4.1
P     6.8   -0.6   -7.1
I     0.1    6.3   -7.6
H     2.7    0.7    9.5
H     3.9    8.8    2.3
H    -1.8   -4.0    8.9
N     6.8   -6.1   -4.0
H    -5.7    7.5    3.2
C     1.8   -9.5    2.4
P    -2.3   -9.6   -0.8
H    -6.2    0.5    7.8
H     1.7    9.3    3.3
I     2.3    4.4    8.7
H    -1.8    2.7    9.5
I     2.3   -4.6    8.7
P    -6.8   -5.1    5.5
H    -1.7   -6.2    7.8
H     3.4   -1.6   -9.4
H     7.3   -6.4   -3.1
C    -2.7    4.4    8.7
H     2.9   -8.5   -4.8
H    -2.8    3.2   -9.3
N    -5.9    8.1    2.3
H     8.4   -5.4    2.3
C    -2.7   -4.6    8.7
H    -1.1   -4.1   -9.4
H     1.1   -1.2  -10.2
H    -1.8    5.1    8.9
P    -2.3    8.5    5.5
H     3.9   -9.3    2.3
H    10.0   -1.2    2.4
C     1.8   -0.4  -10.2
H    -6.3    7.4   -3.7
H    -5.1    8.8    2.3
I    -2.3    0.0  -10.2
N     2.3    9.5   -4.0
P    -6.7    4.0   -7.1
H    -9.6    3.7    2.3
I     4.3   -7.5    6.0
H     5.9    2.4    8.5
H     2.8    9.8   -3.1
H     1.0  -10.3    2.4
I    -8.9   -2.7    5.0
H     5.7   -4.4    7.8
H    10.2   -1.1   -3.0
I    -4.4    6.1   -7.6
I    -4.7   -7.5    6.0
H     1.2  -10.2   -3.0
H    -1.1    5.0   -9.4
I     9.1   -2.7    5.0
H    10.7    0.2    1.5
H     7.4   -6.2   -4.8
H     5.7    4.7    7.8
N    -2.3   -6.1    8.6
I     4.6    6.1   -7.6
N     3.2   -1.0  -10.2
N     3.1  -10.1    2.3
I     8.8    1.9    6.0
P     6.7    8.5   -0.8
H    -0.5    3.7  -10.3
H    -5.1   -9.3    2.3
H    -6.2   -8.4   -3.1
I     4.4   -7.5   -6.6
I    -8.9    6.4   -0.3
H     1.4   10.1   -4.1
C     1.8  -10.1   -3.9
I     2.2    3.3  -10.2
N    -6.8    0.4    8.6
H     4.0   -0.3  -10.3
P    -6.7   -5.1   -7.1
I    -4.6   -7.5   -6.6
H    -6.3   -1.7    8.9
C    10.8   -0.4    2.4
I    -0.2   11.0   -1.2
I    -2.1  -10.1   -3.9
I     6.8   -1.0    8.7
H     1.2    7.8    7.8
H    -5.6   -1.6   -9.4
H     7.3    2.9    7.8
H    -7.8   -1.3    7.8
H   -10.2   -4.1    1.5
I    -9.2    1.9    6.0
H     2.9    9.6   -4.8
I     9.1    6.4   -0.3
H    -3.4   -4.5    9.6
H    -3.4    4.5    9.6
H    10.7    0.2    3.3
N    -1.3    4.4  -10.2
I     8.9    1.9   -6.6
C    -2.7    3.8  -10.2
H    -3.1   -6.7    8.5
H     1.7    0.2  -11.1
H    10.4    1.0   -4.1
H     3.3  -10.7    1.5
H    -9.6   -5.4    2.3
I     6.9    8.0   -3.9
P    -2.2    8.5   -7.1
P   -11.3   -0.6   -0.8
N     6.7    3.0    8.6
N    -1.3   -4.7  -10.2
P    -2.3   -9.7    5.5
H    -2.8   -5.9   -9.3
C    -7.2   -1.0    8.7
I    -9.1    1.9   -6.6
H    -6.3    0.7    9.5
I     8.8   -7.2   -1.2
H   -10.2   -4.1    3.2
H    -8.0    7.9    2.4
H    -5.0   -0.3  -10.3
H    10.3   -1.3   -4.8
C    -7.2    8.0   -3.9
I     6.6   -9.0    2.4
H    -7.6    1.0    8.5
H   -10.2    5.0    1.5
I     4.3   10.6   -1.2
N   -10.4    4.4    2.3
H   -10.7    2.7   -3.1
I    -0.3    1.9   11.3
H     1.3  -10.4   -4.8
C    -7.2    8.7    2.4
I     6.6    9.1    2.4
C    10.8   -1.0   -3.9
H    -6.1   -8.5   -4.8
H    -1.8   -6.4    9.5
H    -7.8    7.9   -3.0
N   -10.4   -4.7    2.3
H    -0.5   -5.4  -10.3
H    -7.3   -8.9    1.5
I   -11.4    0.0    2.4
H     3.3  -10.7    3.2
C     6.3    4.4    8.7
I    -4.7   10.6   -1.2
H    -3.4   -4.5  -10.2
H     6.2    3.2   -9.3
H     2.7  -10.7   -3.7
C     6.3   -4.6    8.7
H     3.4   -1.6  -11.1
N    -6.7   -8.7   -4.0
H    -3.4    4.6  -10.2
I    -9.2   -7.2   -1.2
I     0.1  -11.8   -0.3
H   -10.2    5.0    3.2
H     1.4   -8.1    8.5
P     6.7   -9.6   -0.8
H    -7.6   -8.1   -4.1
C    -2.7   -5.3  -10.2
N    -5.8   -1.0  -10.2
I    -6.7    4.4    8.7
H    -7.3    0.2   -9.3
H     2.7    7.4    8.9
I   -11.1   -1.0   -3.9
H    -1.1   -4.1  -11.1
I    11.1    3.3    2.4
N    -5.9  -10.1    2.3
I    -6.7   -4.6    8.7
H    -2.8    3.2  -11.1
H     2.8   -8.5    7.8
I     2.2   -5.7  -10.2
H    -7.3    9.3    1.5
H    -7.7    7.8   -4.8
N    11.3    0.4   -4.0
H    -7.3   -8.9    3.3
P    11.2    4.0   -0.8
I    -8.9   -2.7   -7.6
C     1.8    8.0    8.7
H     5.6   -4.5    9.6
H     5.6    4.5    9.6
H    -6.2    9.8   -3.1
H   -10.6    2.9   -4.8
I    -2.2    8.0    8.7
P    -2.3   -0.6   11.8
I    -8.9    6.3    5.0
H     7.2   -4.0    8.9
H   -10.8   -4.0   -3.7
C    -7.2   -9.5    2.4
I     9.1    6.3    5.0
P     6.7    8.5    5.5
I     9.1   -2.7   -7.6
P    -2.2   -9.7   -7.1
H    -5.7  -10.7    1.5
H    11.8    0.7   -3.1
I     4.2    1.5   11.3
H     7.2    2.7    9.5
H    -1.1    5.0  -11.1
I     6.7    0.0  -10.2
H    -7.3    9.3    3.3
N    -6.7    9.5   -4.0
H     5.9   -6.7    8.5
N   -11.2    3.0   -4.0
H    -1.7   11.8   -3.1
H    -6.1    9.6   -4.8
H   -11.8    3.2    1.5
H     7.3   -6.2    7.8
P    11.2   -5.1   -0.8
I    -4.8    1.5   11.3
H    11.7   -1.7   -3.7
N    12.1   -1.0    2.3
N     2.2   -8.7    8.6
H     7.2    5.1    8.9
I    -0.2   10.9    6.0
N     6.7   -6.1    8.6
H    -7.9   -1.1    9.6
H     5.6   -4.5  -10.2
H   -10.8    5.1   -3.7
H     3.4    7.5   -9.4
H     1.1    7.9    9.6
C    -7.2   -0.4  -10.2
H    -5.7  -10.7    3.2
H    12.3   -1.6    1.5
H    -5.6   -1.6  -11.1
H     5.6    4.6  -10.2
C   -11.7    3.8    2.4
P   -11.3   -0.6    5.5
H    -3.1   11.5   -4.1
I     0.0   -2.7   12.3
C     6.3    3.8  -10.2
