         400
 sphere cut out from bulk 
I    -0.2   -0.3   -0.5
P     1.6    2.3   -0.1
H     1.5   -0.8    2.4
H     1.5   -1.6   -2.0
P    -2.7   -2.2   -0.1
H    -1.4    1.2   -3.1
C     2.1   -1.6    2.8
H     2.3   -2.4    2.1
I     1.1    2.1    3.1
N     2.0   -2.3   -2.4
H    -3.4    1.5   -1.7
H     2.3   -3.0   -1.7
I     4.2    0.3    0.2
H    -1.5    2.0    3.6
I    -0.9    4.2   -0.5
H     0.4   -2.6    3.6
H    -2.6    3.0   -2.0
I    -2.2   -2.4    3.1
H     2.9   -2.0   -2.8
H    -3.4    2.2    2.1
C    -2.3    1.6   -3.5
N    -3.1    2.2   -2.4
H     3.0   -1.2    3.2
H     0.3   -3.3   -3.1
I     2.2    2.4   -3.3
I    -4.6    0.3    0.2
N     1.3   -2.2    3.9
C     1.2   -2.9   -3.5
H     1.0   -2.2   -4.3
I    -0.9   -4.9   -0.5
H     1.1   -1.5    4.6
H    -2.9    0.8   -4.0
H    -2.6    3.7    2.4
N    -2.4    2.3    3.9
I    -3.3   -2.1   -3.3
C    -3.2    2.9    2.8
H    -2.1    2.4   -4.3
H    -2.9    1.6    4.4
I     3.5   -4.2    0.2
H    -4.0    2.6   -2.8
H     1.8   -3.0    4.4
H     1.8   -3.7   -4.0
H    -2.2    3.0    4.6
H     5.5    1.5   -1.7
I     3.5    4.9    0.2
H     4.8    2.6   -2.8
I    -0.2   -0.3   -6.1
H    -4.1    3.3    3.2
H     5.5    2.2    2.1
H    -2.6   -5.4    2.4
P     6.1   -2.2   -0.1
H     0.3    5.8   -3.1
I    -0.2   -0.3    6.6
N     5.7    2.2   -2.4
H     4.7    3.3    3.2
H     2.3    6.1   -1.7
I     5.5   -2.1   -3.3
I    -5.3   -4.2    0.2
H    -5.8   -1.2    3.2
H    -5.9   -2.0   -2.8
P     1.7    2.2    6.3
H    -2.6   -6.1   -2.0
H     1.8    5.4   -4.0
C     5.7    2.9    2.8
P     1.6   -6.8   -0.1
P     1.7    2.2   -6.4
H     5.9    0.8   -4.0
I     4.2    0.3    5.8
I    -5.3    4.9    0.2
C     1.2    6.2   -3.5
H     6.3    3.0   -2.0
H    -6.5   -2.4    2.1
P    -2.8   -2.3    6.3
P    -2.7    6.9   -0.1
P    -2.8   -2.3   -6.4
H     2.3    6.7    2.1
H     0.4    6.5    3.6
H    -6.6   -3.0   -1.7
I    -4.6    0.3    5.8
C    -3.2   -6.2    2.8
I    -0.9    4.2   -6.1
C    -6.8   -1.6    2.8
N     2.0    6.8   -2.4
H     5.9    1.6    4.4
C     6.5    1.6   -3.5
N    -6.8   -2.3   -2.4
P    -7.2    2.3   -0.1
H     6.3    3.7    2.4
I    -2.2    6.7    3.1
I     1.1   -7.0    3.1
I     6.7   -2.4    3.1
H     1.8    6.1    4.4
I    -6.6    2.4   -3.3
H    -4.1   -5.8    3.2
H    -7.4   -1.6   -2.0
H    -7.4   -0.8    2.4
I     2.2   -6.7   -3.3
I    -0.9    4.2    6.6
N     6.5    2.3    3.9
I    -0.9   -4.9   -6.1
N    -3.1   -6.9   -2.4
H     1.5    7.6   -2.0
H    -2.2   -6.1    4.6
H    -3.4   -6.9    2.1
N     1.3    6.9    3.9
I     3.5   -4.2    5.8
I     4.2    0.3   -6.9
H    -1.5   -7.2    3.6
H     4.7   -5.8    3.2
H     7.4    1.2   -3.1
H    -4.0   -6.5   -2.8
N    -2.4   -6.8    3.9
H     1.0    6.9   -4.3
H     2.9    7.2   -2.8
I    -0.9   -4.9    6.6
H    -2.1   -6.7   -4.3
C     2.1    7.5    2.8
H     1.1   -1.5   -8.1
I    -4.6    0.3   -6.9
H     6.7    2.4   -4.3
I     3.5    4.9    5.8
I    -3.3    7.0   -3.3
H     7.4    2.0    3.6
H    -3.4   -7.6   -1.7
H     4.8   -6.5   -2.8
H     6.3   -5.4    2.4
H    -1.4   -7.9   -3.1
I    -7.8    2.1    3.1
C    -2.3   -7.5   -3.5
I     8.6   -0.3   -0.5
H     6.7    3.0    4.6
H     1.0   -2.2    8.4
H     1.5    8.3    2.4
H    -7.0   -3.0    4.4
N    -7.6   -2.2    3.9
I    -0.2    8.8   -0.5
I     3.5   -4.2   -6.9
C     5.7   -6.2    2.8
H    -2.2    3.0   -8.1
H    -7.0   -3.7   -4.0
C    -7.6   -2.9   -3.5
H     1.1    7.6    4.6
I    -5.3   -4.2    5.8
H     6.3   -6.1   -2.0
H    -2.9    1.6   -8.3
H    -2.1    2.4    8.4
P     6.0   -2.3    6.3
I     7.9    4.2   -0.5
H     1.8   -3.0   -8.3
H     3.0    7.9    3.2
H     5.5   -6.9    2.1
I    -9.0   -0.3   -0.5
P     6.0   -2.3   -6.4
H    -6.6    6.1   -1.7
I     3.5    4.9   -6.9
N     1.3   -2.2   -8.8
H    -7.8   -2.2   -4.3
H    -7.8   -1.5    4.6
H    -2.9   -7.6    4.4
P     6.1    6.9   -0.1
H    -2.9    0.8    8.7
I    -5.3    4.9    5.8
N     5.7   -6.9   -2.4
I     7.9   -4.9   -0.5
N    -2.4    2.3   -8.8
I    -0.2   -9.4   -0.5
I     5.5    7.0   -3.3
H    -1.5    2.0   -9.1
P     1.7   -6.9    6.3
H     5.5   -7.6   -1.7
H     0.4   -2.6   -9.1
H    -8.5   -2.6    3.6
P     1.7   -6.9   -6.4
C    -2.3    1.6    9.2
H    -6.5    6.7    2.1
H    -2.9   -8.3   -4.0
H    -7.0    5.4   -4.0
H    -8.5   -3.3   -3.1
H     1.8   -3.7    8.7
I    -5.3   -4.2   -6.9
H    -5.9    7.2   -2.8
P    -2.8    6.8    6.3
C     1.2   -2.9    9.2
I     4.2   -8.8    0.2
P    -2.8    6.8   -6.4
P    -7.1    2.2    6.3
H    -1.4    1.2    9.6
P    -7.1    2.2   -6.4
I     1.1    2.1   -9.6
N    -6.8    6.8   -2.4
I    -4.6   -8.8    0.2
I     6.7    6.7    3.1
P    -7.2   -6.8   -0.1
I    -6.6   -6.7   -3.3
I    -5.3    4.9   -6.9
I     2.2    2.4    9.4
H     3.0   -1.2   -9.5
I    -2.2   -2.4   -9.6
N     6.5   -6.8    3.9
H     0.3   -3.3    9.6
H     6.7   -6.1    4.6
H     9.2   -2.6    3.6
I    -3.3   -2.1    9.4
C     2.1   -1.6   -9.9
H     9.2   -3.3   -3.1
H    -7.0    6.1    4.4
H     1.5   -9.9    2.4
H    -2.2   -6.1   -8.1
H     5.9    1.6   -8.3
I     4.2    9.4    0.2
H    -5.8    7.9    3.2
C    -7.6    6.2   -3.5
H     1.8    5.4    8.7
H     6.7   -6.7   -4.3
H     1.5   -0.8  -10.3
C    -6.8    7.5    2.8
H     1.8    6.1   -8.3
H     2.9   -2.0    9.9
I    -4.6    9.4    0.2
H     5.9   -7.6    4.4
C     6.5   -7.5   -3.5
H     5.9    0.8    8.7
I     8.6   -0.3   -6.1
I     9.9    2.1    3.1
H    10.3   -0.8    2.4
H    10.3   -1.6   -2.0
I    -9.7    4.2   -0.5
P    10.4    2.3   -0.1
I    -0.2    8.8   -6.1
N     2.0   -2.3   10.3
H    -7.4    7.6   -2.0
H    -8.5    5.8   -3.1
H   -10.3    1.2   -3.1
C    -3.2    2.9   -9.9
I     8.6   -0.3    6.6
H    -4.1    3.3   -9.5
H    -1.4   10.3   -3.1
H     7.4   -7.2    3.6
I    -7.8   -7.0    3.1
I    -9.7   -4.9   -0.5
I     8.0    4.2   -6.1
H     6.7    3.0   -8.1
N    -7.6    6.9    3.9
H     1.5   -1.6   10.7
H     5.9   -8.3   -4.0
I    -9.1   -0.3   -6.1
H     1.0    6.9    8.4
H     1.5  -10.7   -2.0
N    -3.1    2.2   10.3
I    -0.2    8.8    6.6
H     9.9   -2.2   -4.3
H    -2.1   -6.7    8.4
H    -4.0    2.6    9.9
H     6.7    2.4    8.4
H     9.9   -1.5    4.6
P     6.0    6.8    6.3
H    -2.9    9.9   -4.0
H   -10.3    2.0    3.6
N    10.1   -2.2    3.9
C    10.1   -2.9   -3.5
H     1.1    7.6   -8.1
H     4.7    3.3   -9.5
C     1.2    6.2    9.2
P     6.0    6.8   -6.4
I     5.5   -2.1    9.4
H     2.3   -2.4  -10.6
I     8.0    4.2    6.6
N     6.5    2.3   -8.8
I     8.0   -4.9   -6.1
H     0.3    5.8    9.6
I    -9.1   -0.3    6.6
H    -5.8   -1.2   -9.5
H     3.0  -10.3    3.2
H     0.4    6.5   -9.1
N     1.3    6.9   -8.8
H    -8.5    6.5    3.6
I    -0.2   -9.4   -6.1
H     9.2    5.8   -3.1
C     2.1  -10.7    2.8
H     7.4   -7.9   -3.1
H    -7.8    6.9   -4.3
H    -2.6    3.7  -10.3
H    -7.0   -3.0   -8.3
H    -3.4   10.6   -1.7
H    -7.8   -1.5   -8.1
H     4.8    2.6    9.9
H    -7.4    8.3    2.4
C     6.5    1.6    9.2
I     4.2   -8.8    5.8
N    -2.4   -6.8   -8.8
H    -3.4    2.2  -10.6
N    10.9   -2.3   -2.4
C    10.9   -1.6    2.8
I     8.0   -4.9    6.6
H    -2.6    3.0   10.7
I    -0.2   -9.4    6.6
I    -4.6   -8.8    5.8
C    -2.3   10.7   -3.5
P     1.6   11.4   -0.1
H    11.1   -2.4    2.1
H    -3.4    1.5   11.0
H    -2.9   -7.6   -8.3
H     2.3   -3.0   11.0
H    11.1   -3.0   -1.7
H     1.1  -10.7    4.6
P    -2.7  -11.4   -0.1
H    -7.8   -2.2    8.4
H    -5.9   -2.0    9.9
I   -11.0   -2.4    3.1
H    -1.5   -7.2   -9.1
H    -1.5   11.1    3.6
I     1.1   11.2    3.1
P    -7.1   -6.9    6.3
P   -11.5   -2.2   -0.1
I    -6.6    2.4    9.4
C     5.7    2.9   -9.9
P    -7.1   -6.9   -6.4
H     2.9  -11.1   -2.8
I     2.2   -6.7    9.4
H    -7.0   -3.7    8.7
I    11.1    2.4   -3.3
H    -7.8    7.6    4.6
N    -7.6   -2.2   -8.8
H    -4.1   -5.8   -9.5
H     9.2    6.5    3.6
C   -11.2    1.6   -3.5
I     4.2    9.4    5.8
N     2.0  -11.4   -2.4
H     2.3  -11.5    2.1
H    -2.9   10.7    4.4
H     7.4    2.0   -9.1
I    -2.2    6.7   -9.6
H    -2.6   -5.4  -10.3
H    10.7   -3.0    4.4
I     1.1   -7.0   -9.6
I     6.7   -2.4   -9.6
I     4.2   -8.8   -6.9
N     5.7    2.2   10.3
H    -3.4   11.3    2.1
H   -11.4    3.0   -2.0
I    -4.6    9.4    5.8
H    10.7   -3.7   -4.0
H   -11.0    2.4   -4.3
N    -3.1   11.3   -2.4
H     4.7   -5.8   -9.5
N     1.3  -11.3    3.9
C    -2.3   -7.5    9.2
C    -3.2   -6.2   -9.9
I    -4.6   -8.8   -6.9
C    -6.8   -1.6   -9.9
H     5.5   10.6   -1.7
N   -11.2    2.3    3.9
H     6.7   -6.1   -8.1
H     1.0  -11.3   -4.3
I    -2.2  -11.5    3.1
H     5.5    2.2  -10.6
I    -0.2   -0.3   12.2
I    -3.3  -11.3   -3.3
I     2.2   11.5   -3.3
H     7.4    1.2    9.6
I    -3.3    7.0    9.4
H     5.9    9.9   -4.0
H     0.4  -11.7    3.6
I    -9.7    4.2   -6.1
H   -11.4    3.7    2.4
C    -7.6   -2.9    9.2
H    11.8   -2.0   -2.8
H    -5.8  -10.3    3.2
N    -2.4   11.4    3.9
H   -11.0    3.0    4.6
H    11.8   -1.2    3.2
C    10.1    6.2   -3.5
I     8.6    8.8   -0.5
H     5.5    1.5   11.0
H    -2.9   -8.3    8.7
H    -7.0    5.4    8.7
I     4.2    9.4   -6.9
N   -12.0    2.2   -2.4
H   -12.2    1.5   -1.7
H    -2.1   11.5   -4.3
H     2.3  -12.1   -1.7
P    10.4   -6.8   -0.1
H   -11.8    0.8   -4.0
I    -9.7    4.2    6.6
N     2.0    6.8   10.3
H    -7.0    6.1   -8.3
I    -9.7   -4.9   -6.1
H    -1.4   -7.9    9.6
P    10.6    2.2    6.3
I     9.9   -7.0    3.1
H    -4.0   -6.5    9.9
N    -6.8   -2.3   10.3
H    -2.6   12.1   -2.0
I    -7.8    2.1   -9.6
I    -4.6    9.4   -6.9
P    10.6    2.2   -6.4
H     2.9    7.2    9.9
H    -7.4   -9.9    2.4
C     2.1    7.5   -9.9
H   -12.2    2.2    2.1
