         400
 sphere cut out from bulk 
P     0.0    0.0    1.2
I    -2.4   -0.2   -0.9
I     1.4   -2.0   -0.9
I     1.1    2.2   -0.9
P     0.1   -0.0   -3.0
I    -1.0   -2.1    3.3
I     2.5    0.2    3.3
I    -1.3    2.1    3.3
H    -4.4    1.6    0.3
H     0.7   -4.6    0.4
H     3.7    2.9    0.3
H    -4.0   -1.9   -1.6
H     0.3    4.4   -1.8
H     3.7   -2.5   -1.7
H    -3.7    2.5    2.5
H    -3.9    3.4    0.3
H     4.1    1.9    2.5
H    -0.3   -4.4    2.6
H    -1.0   -5.1    0.4
H     4.9    1.6    0.3
C    -4.6    2.6    0.6
C     0.0   -5.3    0.7
C     4.7    2.6    0.6
P     0.1   -0.0    5.4
I    -1.2    2.0   -5.1
I    -1.1   -2.2   -5.1
I     2.5   -0.0   -5.1
N    -4.6   -2.7   -2.0
N    -0.1    5.3   -2.1
N    -4.6    2.7    2.1
N     4.7   -2.7   -2.0
N     4.7    2.7    2.1
N    -0.0   -5.4    2.2
H    -4.3   -3.6   -1.7
H    -1.0    5.5   -1.7
H     5.3   -1.9   -1.6
H    -0.4    4.4    4.0
H    -3.6   -3.0   -3.9
H    -5.2    1.9    2.5
H     4.3    3.6    2.5
H     4.5   -1.6   -3.8
H    -0.9    4.7   -4.0
H     1.0   -5.5    2.6
H    -5.6   -2.5   -1.7
H    -4.8   -1.6   -3.8
H    -5.6    2.9    0.3
H     0.6    6.1   -1.8
H     0.3   -6.3    0.4
C    -4.6   -2.6   -3.5
H     5.4    3.4    0.3
H     5.0   -3.6   -1.7
H     3.9   -3.3   -3.9
C     4.7   -2.6   -3.5
C    -0.1    5.3   -3.6
H     0.9    5.0   -4.0
H    -3.6   -2.9    4.6
H     4.4   -1.7    4.6
H    -5.0    3.6    2.5
H     5.6    2.5    2.5
H    -0.6   -6.1    2.6
H     0.9    5.5    4.0
N    -0.1    5.3    4.4
I    -3.6   -5.9   -0.9
I    -3.4    6.0   -0.9
H    -4.9   -1.7    4.6
I     6.9   -0.2   -0.9
H     4.0   -3.4    4.6
P     0.1   -0.0   -7.2
C    -4.6   -2.7    4.9
H    -0.7    6.1    4.0
H    -0.3   -4.4   -5.8
C     4.7   -2.7    4.9
H    -5.4   -3.3   -3.9
I     3.4    5.8    3.3
H     5.7   -3.0   -3.9
H    -0.3    6.4   -4.0
I    -6.8    0.2    3.3
I     3.3   -6.0    3.2
H     4.3    1.8   -6.2
H     0.7    4.7    6.2
H    -5.3   -3.4    4.6
I    -2.4   -0.2    7.5
H     5.7   -2.9    4.6
I     1.4   -2.1    7.5
I     1.2    2.1    7.5
H    -3.5    2.8   -6.5
C    -0.1    5.3    5.9
H    -1.1    5.0    6.2
H     1.0   -5.5   -5.8
H    -4.0   -1.9    6.8
I     2.1    7.8   -0.9
I    -7.9   -2.0   -0.9
H    -5.0    1.8   -6.2
N     0.0   -5.3   -6.2
H     3.7   -2.5    6.8
I     5.7   -5.9   -0.9
N    -4.6   -2.7    6.4
N     4.7   -2.7    6.4
H    -0.6   -6.1   -5.8
I     5.9    6.0   -0.9
I     3.3   -5.9   -5.1
I    -6.8   -0.0   -5.1
I    -8.2    2.2   -0.9
C    -4.4    2.3   -7.0
I     2.2   -8.2   -0.9
I     3.4    6.0   -5.2
H     3.7    4.1   -6.8
H    -4.2   -3.6    6.8
C     4.9    2.3   -7.0
H     5.3   -1.9    6.8
H     0.1    6.4    6.2
I    -5.9    5.8    3.3
I     8.0    2.1    3.3
I    -2.3    8.0    3.3
H    -4.1    1.6   -7.8
I    -2.2   -8.1    3.3
I    -5.9   -6.0    3.2
I     8.2   -2.1    3.3
H     5.8    2.8   -6.5
H    -5.5   -2.5    6.8
H     5.1   -3.6    6.8
H     3.2    3.0   -8.1
N     4.1    3.4   -7.6
P     4.5    8.0    1.1
H     0.8   -4.6   -8.0
P    -9.2    0.0    1.2
C     0.0   -5.3   -7.7
P    -4.7    8.0    1.1
P     4.6   -8.1    1.1
P    -4.6   -8.1    1.1
P     9.3    0.0    1.2
H     5.2    1.6   -7.8
H    -1.0   -5.0   -8.0
I     1.2    2.2   -9.3
I    -2.3   -0.1   -9.3
P     0.1   -0.1    9.6
I    -2.2   -7.8   -5.1
I     1.4   -2.0   -9.3
H    -5.6    4.1   -6.8
P    -9.2   -0.0   -3.0
P     4.6    8.0   -3.1
H    -8.6   -4.6    0.4
H     8.3   -5.1    0.4
H     0.2    9.7    0.4
H     3.2    3.0    8.7
P     4.6   -8.0   -3.1
P    -4.6   -8.0   -3.1
I     8.1    2.0   -5.1
P    -4.7    8.0   -3.1
P     9.3   -0.0   -3.0
N    -5.2    3.4   -7.6
I    -6.0   -5.9   -5.1
I    -5.9    6.0   -5.2
I     8.2   -2.2   -5.1
I    -2.3    8.2   -5.1
H     0.8   -4.7    8.8
H     8.2    5.5   -1.7
H    -4.1    1.6    9.1
I    -3.5   -5.9    7.4
I    -3.6    5.9    7.5
H     0.6  -10.0   -1.8
H    -9.0    4.4   -1.8
H    -1.0   -5.1    8.8
I     6.9   -0.2    7.5
H     0.2   -6.3   -8.0
H     4.6    4.0   -8.2
H    -4.7    4.0   -8.2
H    -0.7    9.9    2.6
H    -8.3   -5.5    2.6
H     9.0   -4.4    2.6
H     8.4    4.7   -4.0
H    -0.2   -9.7   -4.0
H     4.6    3.9    8.6
H    -4.7    3.9    8.6
H    -6.1    3.0   -8.1
H     5.2    1.6    9.1
H    -8.4    5.0   -4.0
C     0.0   -5.4    9.1
I    -3.3  -10.1   -0.9
I    10.4    2.2   -0.9
N     4.1    3.3    9.2
I    -7.2    7.8   -0.9
H     9.5    4.4   -1.8
P     4.5    8.0    5.4
P    -9.2   -0.0    5.4
H     8.9    4.4    4.0
P     4.6   -8.0    5.4
C    -9.3   -5.3    0.7
C     9.3   -5.3    0.7
P    -4.7   -8.0    5.4
H    -0.9  -10.6   -1.7
C    -0.1   10.7    0.7
P    -4.8    8.0    5.4
H    -0.6  -10.0    4.0
H    -8.7    6.1   -1.8
H    -8.4    5.5    4.0
P     9.4   -0.0    5.4
N     9.2    5.3   -2.1
I    -3.7   10.2   -0.9
H     0.2   -6.4    8.8
H     0.9   10.5    2.6
I    -7.1   -8.2   -0.9
H     8.7   -6.1    2.6
H    -9.6   -4.4    2.6
I    10.7   -2.0   -0.9
H    -4.0   -1.9  -10.0
N    -0.1   10.7    2.2
N     0.0  -10.7   -2.1
N     9.3   -5.4    2.2
H     3.7   -2.5  -10.0
N    -9.3   -5.4    2.2
N    -9.4    5.3   -2.1
H    -9.0   -6.3    0.4
I     3.3   10.0    3.2
C    -4.4    2.3    9.8
H    10.0   -4.6    0.4
H    -6.1    3.0    8.7
H    -1.1   11.0    0.4
I   -10.3   -2.1    3.3
I    -7.9   -2.1    7.5
I     5.7    5.9    7.5
I     5.8   -5.9    7.4
I     7.0    8.0    3.3
N    -5.2    3.3    9.2
I     2.1    8.0    7.4
I     2.2   -8.0    7.4
H    -3.5    2.7   10.3
C     4.9    2.3    9.8
I     7.1   -8.1    3.3
I    -8.1    2.1    7.5
C     9.2    5.3   -3.6
H     8.6    6.1    4.0
I   -10.6    2.1    3.3
I     3.4  -10.2    3.3
C    -0.0  -10.7   -3.6
H     1.0  -10.6    4.0
H    -9.7    4.4    4.0
H     3.7    4.0   10.0
C    -9.4    5.3   -3.6
P     0.1    0.1  -11.4
H     8.2    5.0    6.2
H    -4.2   -3.5  -10.0
H   -10.3   -5.1    0.4
H     9.6   -6.3    0.4
H     5.3   -1.9  -10.0
H     0.6   11.5    0.4
H     0.2   -9.7    6.2
N     9.2    5.3    4.4
H    -8.3   -5.5   -5.8
H     9.0   -4.4   -5.8
N     0.0  -10.7    4.4
H    -0.7   10.0   -5.8
H     4.3    1.8   10.6
I    -3.5   -5.8   -9.4
H    -8.6    4.7    6.2
N    -9.4    5.3    4.4
H     0.7    4.7  -10.6
I     6.9   -0.1   -9.3
N    -4.6   -2.6  -10.4
I    -3.5    6.0   -9.4
I     5.6   10.2   -0.9
P    -4.6   -7.9   -7.3
P     4.6   -7.9   -7.3
H     9.0    6.4   -4.0
H    -5.5   -2.5  -10.0
H     9.8    6.1   -1.8
N     4.7   -2.6  -10.4
P    -9.2   -0.0   -7.2
I   -11.7   -0.2   -0.9
I     7.1   -7.8   -5.1
I     6.0  -10.1   -0.9
H     1.0  -11.0   -4.0
H     5.1   -3.5  -10.0
I   -10.4   -2.2   -5.1
H     0.3  -11.7   -1.8
P     9.3   -0.0   -7.2
I     3.2   10.1   -5.1
I   -10.5    2.0   -5.1
H   -10.3    5.5   -1.7
P     4.6    8.2   -7.3
H    -1.1    5.1  -10.6
H    -5.0    1.8   10.6
H   -10.2    4.7   -4.0
H    -0.3   -4.5   11.0
I     3.5  -10.1   -5.2
H    -0.4   11.6    2.6
P    -4.7    8.2   -7.3
N     0.0   -5.4   10.6
H    10.2   -5.5    2.6
H    -9.9   -6.1    2.6
I    -1.2    2.0   11.7
I     7.0    8.2   -5.1
I     2.5   -0.1   11.7
I    -1.1   -2.3   11.7
H    10.2    5.0   -4.0
H    -9.6   -4.4   -5.8
H    -0.8  -11.4   -4.0
H     0.9   10.6   -5.8
H     8.7   -6.1   -5.8
H     5.8    2.7   10.3
H    -5.6    4.0   10.0
I    -6.0   10.0    3.2
C     9.2    5.3    5.9
H    -9.6    6.4   -4.0
I    11.8    0.2    3.3
C    -0.0  -10.7    5.9
C    -0.1    5.4  -11.0
I    -5.8  -10.2    3.3
H    10.2    5.5    4.0
C    -9.4    5.3    5.9
H    -0.3  -11.6    4.0
H   -10.0    6.1    4.0
N    -9.3   -5.3   -6.2
H     1.0   -5.6   11.0
N     9.3   -5.3   -6.2
N    -0.1   10.7   -6.2
I    -7.9   -2.0   -9.3
H     0.1    6.4  -10.6
I     5.8   -5.8   -9.4
I    -8.1    2.2   -9.3
I     2.2   -8.0   -9.4
I     5.7    6.0   -9.4
I     2.1    8.1   -9.4
H    -8.5   -4.6   -8.0
H     8.3   -5.0   -8.0
H    -0.6   -6.2   11.0
H     0.2    9.7   -8.0
H    10.0    4.7    6.2
H    -1.0  -11.0    6.2
I    -5.8  -10.1   -5.2
H    -9.2    6.4    6.2
I    11.8   -0.0   -5.1
I    -6.1   10.1   -5.1
H     9.4    6.4    6.2
H    -9.9   -6.1   -5.8
C    -4.6   -2.6  -11.9
H     0.8  -11.4    6.2
H    -0.4   11.6   -5.8
C     4.7   -2.6  -11.9
H    10.3   -5.5   -5.8
I    -7.1   -8.0    7.4
H     0.2    9.7    8.8
I    -3.5  -10.1    7.5
H     4.4   -1.6  -12.2
H    -3.6   -2.8  -12.2
I    -7.2    8.0    7.4
H   -10.4    5.0    6.2
I    -3.6   10.2    7.4
I    10.5    2.1    7.5
H    -8.5   -4.7    8.8
H     8.3   -5.1    8.8
C    -9.3   -5.3   -7.7
C     9.3   -5.3   -7.7
I    10.7   -2.1    7.5
C    -0.1   10.7   -7.7
H    -4.9   -1.6  -12.2
H    -3.8  -12.7    0.3
H     4.0   -3.3  -12.2
P     4.6   -8.0    9.6
P    -4.6   -8.0    9.6
H    13.0    2.9    0.3
H    -4.4   12.5   -1.7
H    -9.1    9.7    0.4
P     4.6    8.1    9.6
H    -8.6  -10.0   -1.8
P    -9.2   -0.1    9.6
H    13.0   -2.5   -1.7
H     8.6    9.9    2.6
P    -4.7    8.1    9.6
H   -12.9    2.5    2.5
P     9.3   -0.1    9.6
I     3.4    5.9   11.6
H     4.4  -12.5    2.5
H   -13.2   -1.9   -1.6
H     4.9   12.5   -1.7
I    -6.8   -0.1   11.7
I     3.3   -6.0   11.7
H     8.3  -10.6   -1.7
N    -0.1    5.4  -12.5
H   -13.2    3.4    0.3
H    -0.4    4.5  -12.8
H     9.5    9.7    0.4
H    -4.9  -12.5    2.5
H    -9.0   -6.3   -8.0
H    10.1   -4.6   -8.0
H    -0.9    4.6   12.9
H     3.8  -13.2    0.3
H    -1.1   11.0   -8.0
H    13.3    1.9    2.5
H     8.2   11.0    0.4
I    -1.0   -2.1  -13.5
H    -8.4   10.5    2.6
H    -5.3   -3.3  -12.2
I    -1.3    2.2  -13.5
H   -13.6    1.6    0.3
I     2.5    0.3  -13.5
H     5.7   -2.8  -12.2
H     0.9    5.0   12.8
H   -12.9   -3.0   -3.9
H    -3.6   -3.1   13.0
