         400
 sphere cut out from bulk 
H     0.0    0.2    0.0
N     0.9    0.7   -0.3
H     1.1    0.3   -1.2
H     1.6    0.3    0.4
I    -2.0   -0.9    0.7
C     0.8    2.1   -0.3
H     0.0    2.4   -0.9
H     0.7    2.5    0.7
H     1.8    2.5   -0.7
I     1.6   -1.0   -3.3
I     3.0   -1.0    2.0
H    -3.1   -0.7   -2.4
H    -2.4   -2.3   -2.7
P    -3.7    1.3    2.4
C    -3.3   -1.7   -2.6
I    -1.2    3.1    3.1
H     0.9    0.4    4.5
H     1.2   -1.9    4.0
I    -1.2    2.8   -3.7
H    -4.0   -2.1   -1.8
H    -0.3   -1.7    4.8
H     0.1   -5.2    0.4
N     0.7   -1.7    4.9
I    -4.4    2.9   -0.2
P    -3.6   -3.2    2.4
C     1.2   -0.3    5.3
I     4.6    2.9   -0.2
H     0.7   -5.3   -1.3
I    -2.7   -0.9    4.7
H     1.8   -5.3    0.1
H     4.1   -1.2   -3.8
C     0.8   -5.6   -0.3
P     0.8    1.2   -5.6
I    -1.0   -4.8    3.1
H     5.1   -2.1   -1.8
N    -4.1   -1.8   -3.8
H     2.2   -0.3    5.5
H    -3.5   -1.4   -4.6
P     5.4    1.3    2.4
I     3.4    2.8    4.3
H     1.0   -2.3    5.7
H     0.6   -0.0    6.2
I    -1.1   -5.0   -3.7
H    -5.0   -1.2   -3.8
I    -1.6   -1.1   -6.1
I    -6.0   -1.0    2.0
P    -3.7    4.4   -2.9
I    -4.2   -4.9   -0.3
H     6.0   -0.7   -2.4
C     5.7   -1.7   -2.6
N     5.0   -1.8   -3.8
I     3.3    3.0   -4.9
H    -4.4   -2.7   -4.1
P     0.8   -3.3   -5.6
H    -2.9    5.4    2.7
P     5.5   -3.2    2.4
H    -3.2    5.9    1.2
H     4.7   -2.7   -4.1
I     4.8   -4.9   -0.3
P     0.9    4.6    5.0
I    -1.9    6.7   -1.0
I     7.0   -0.9    0.7
N     0.8   -7.1   -0.2
N    -3.5    6.0    2.1
H     5.6   -1.4   -4.6
I     3.6   -4.9    4.3
H    -7.4    0.3    0.4
H    -3.3    0.6    6.7
H     1.5    5.2   -5.2
P     5.3    4.4   -2.9
H     6.6   -2.3   -2.7
H    -0.1   -7.5   -0.5
I     1.9    6.8    2.8
H     1.1   -7.5    0.7
H    -4.5    5.7    2.2
H     4.6    5.7    2.2
I    -5.6    2.8    4.3
I     3.5   -4.9   -4.8
H     1.5   -7.5   -0.9
H    -7.3    2.5   -0.7
I     2.5   -1.0   -7.3
I     3.2    6.8   -2.4
I     6.3   -0.9    4.7
H     0.1    7.9   -0.5
H    -0.1    5.5   -5.7
H    -7.9    0.3   -1.2
P    -3.7   -6.6   -2.9
H     1.3    8.0    0.7
H     1.7    7.9   -0.9
I    -5.8    3.0   -4.9
N    -8.1    0.7   -0.3
P     1.0   -6.4    5.0
H    -2.6    2.9    7.2
I    -7.5   -1.0   -3.3
I     0.3    3.0    7.7
N     0.9    5.8   -5.8
H    -2.9    0.3   -7.7
N     1.0    8.3   -0.2
N    -3.5    1.0    7.6
H     5.9    5.9    1.2
H    -2.3    7.7    2.5
N     5.5    6.0    2.1
I    -5.4   -4.9    4.3
C    -8.2    2.1   -0.3
H     0.7    7.3   -4.3
H    -2.5   -7.8    2.5
C    -3.4    7.4    2.6
H     6.1    5.4    2.7
H    -3.9    2.5   -7.2
I     0.1    2.7   -8.2
H    -2.7    0.6    8.2
H    -4.2   -7.4    1.9
H    -6.8   -0.3    5.5
H    -4.4    2.8    7.0
C    -3.6    2.5    7.6
H    -8.4    2.5    0.7
H     5.8    0.6    6.7
I     0.4   -4.5    7.6
I    -5.6   -4.9   -4.8
H     4.6    2.8    7.0
I    -2.7    6.7   -5.2
H     1.2    5.7   -6.8
H    -7.2   -5.3    0.1
I    -1.3    6.9    5.5
P     5.4   -6.6   -2.9
H    -7.8   -1.9    4.0
I     7.9    3.1    3.1
C     1.0    7.2   -5.3
H    -9.0    0.2    0.0
H    -4.4    0.5    7.9
H     4.9   -7.4    1.9
H     9.1    0.2    0.0
I     2.7   -0.7    8.6
I    -2.1   -8.8   -1.0
N    -3.7    0.7   -8.3
H    -3.8    7.5    3.6
I     7.9    2.8   -3.7
H     4.5    0.2   -8.0
C    -3.6   -8.0    2.6
H    -4.0    8.0    1.9
H    -3.7   -5.1    6.6
H     0.5   -8.1   -4.3
H    -4.6    0.2   -8.0
H     4.7    0.5    7.9
H     5.2    2.5   -7.2
I     1.7   -8.7    2.8
I    -5.9    6.8   -2.4
H    -8.2    0.4    4.5
C    -3.8    2.2   -8.3
H    -9.1    2.4   -0.9
H     9.1    2.4   -0.9
I     3.0   -8.7   -2.4
H     2.1    7.5   -5.4
N     5.6    1.0    7.6
C    -7.9   -0.3    5.3
H    -2.9    2.6   -8.7
H    -4.0   -8.0    3.6
I     0.2   -4.8   -8.4
H     0.2   -7.6   -6.0
C     5.7    7.4    2.6
H     5.1    8.0    1.9
H     0.4   -0.3   -9.7
C     5.5    2.5    7.6
I     7.5   -1.1   -6.1
H     1.9   -7.9   -5.4
N    -8.3   -1.7    4.9
I     7.1    6.7   -1.0
C     0.8   -8.2   -5.3
H    -3.7    2.8    8.7
H     6.1    0.3   -7.7
I    -6.5   -1.0   -7.3
H    -2.6   -5.1    8.0
H     5.3    7.5    3.6
H     0.4    7.9   -6.0
C     1.0    9.8   -0.3
I    -1.3   -0.8    9.8
H    -3.5    0.3   -9.3
N     5.4    0.7   -8.3
I     8.1   -4.8    3.1
H     5.3   -5.1    6.6
P    -3.5    8.9   -2.9
C    -8.2   -5.6   -0.3
H    -2.8   -5.4   -7.9
N    10.0    0.7   -0.3
H    -8.4   -5.3   -1.3
P    -8.3    1.2   -5.6
C     5.3    2.2   -8.3
C    -3.6   -5.4    7.7
C     5.5   -8.0    2.6
H     9.7    2.5    0.7
H     6.4    2.9    7.2
H     5.1   -8.0    3.6
I     8.0   -5.0   -3.7
H     8.8   -1.7    4.8
C     9.9    2.1   -0.3
I     2.6    6.9    7.0
H    -8.1   -2.3    5.7
H    -3.4   -9.5    1.2
H     4.4    2.5   -8.9
I    -7.1    6.8    2.8
H     0.3   10.2    0.4
H     0.9   10.1   -1.3
I    -1.5   -8.5    5.5
H    10.2    0.3   -1.2
H     4.5   -5.3   -7.6
H    -4.6    2.5   -8.9
H    -4.6   -5.3   -7.6
H     2.0   10.2    0.1
N    -3.7   -9.5    2.1
H     6.3    0.6    8.2
H    -9.0   -5.2    0.4
P     1.2    9.1    5.0
H     6.5   -7.8    2.5
H    -8.4   -0.0    6.2
P     1.0    1.5   10.3
H     9.1   -5.2    0.4
H     6.7    7.7    2.5
P    -8.3   -3.3   -5.6
I     6.3    6.7   -5.2
H    -7.6    5.2   -5.2
H     5.4    2.8    8.7
H     0.8   -2.6  -10.2
P    -8.1    4.6    5.0
I    -2.9   -8.8   -5.2
H    -9.3   -1.7    4.8
H    -3.0   -7.4    7.1
H    -4.3   -5.0    8.3
H     2.0   -0.6  -10.5
C     0.9   -0.6  -10.6
H    -7.6   -7.5   -0.9
H    10.7    0.3    0.4
I    -6.3   -0.7    8.6
C    -3.8   -5.7   -8.2
P     1.0   -3.0   10.3
H     5.6    0.3   -9.3
H     4.7   -5.0    8.3
H    -7.4    7.9   -0.9
P     5.6    8.9   -2.9
I    -6.1   -8.7   -2.4
N    -8.2   -7.1   -0.2
H     4.4   -9.7    2.2
C     5.5   -5.4    7.7
H    -3.1  -10.1    2.7
H    10.0    0.4    4.5
H    -8.0   -7.5    0.7
H     6.2    2.6   -8.7
N    -3.6   -6.9    7.7
H    -4.7   -9.7    2.2
H     1.4    6.0    9.2
N     5.4   -9.5    2.1
H    -2.8    8.1    7.1
N     9.8   -1.7    4.9
H    -3.6   -7.6   -7.2
I    -0.8   10.7    3.1
I   -11.1   -0.9    0.7
H    10.8    2.5   -0.7
I   -10.2    3.1    3.1
H     9.7   -5.3   -1.3
I    10.6   -1.0   -3.3
I    -0.9   10.5   -3.7
N     0.5   -2.0  -11.0
H     5.7   -9.5    1.2
H    -7.8    8.0    0.7
H    -3.4    7.8   -7.2
I   -10.2    2.8   -3.7
I     6.9   -8.8   -1.0
H    10.3   -1.9    4.0
N     0.7   -9.6   -5.8
H    -0.5   -2.0  -11.1
I     2.4   -8.6    7.0
I    -4.1   10.6   -0.3
I     2.4    6.6   -8.9
C     5.3   -5.7   -8.2
P     9.8    1.2   -5.6
H     4.5   -7.3    7.5
C     9.9   -5.6   -0.3
H    -4.6   -7.3    7.5
H     0.7    0.1  -11.4
H    -0.3   -9.9   -5.7
H    -4.0   -5.4   -9.3
H     6.3   -5.4   -7.9
P    -8.1   -6.4    5.0
H     6.5   -5.1    8.0
C    10.2   -0.3    5.3
I   -10.0   -4.8    3.1
H     9.7   -0.0    6.2
H     1.3  -10.3   -5.2
N    -8.2    5.8   -5.8
N    -3.8   -7.2   -8.2
N    -8.0    8.3   -0.2
H    -7.0    7.5   -5.4
I    -3.0   -1.2  -11.2
H     9.0   -7.5   -0.5
I    -7.3   -8.7    2.8
I    -6.4    6.9    7.0
N     5.4   -6.9    7.7
I     5.0   10.6   -0.3
P     0.7    4.3  -10.9
H     0.1    5.8   10.2
H    10.0   -2.3    5.7
H    -3.3   -1.1   11.3
I     7.8    6.9    5.5
H    -7.8    5.7   -6.8
P     9.9   -3.3   -5.6
H    -3.4   -7.3    8.7
H     5.5   -7.6   -7.2
H    -9.2   -7.5   -0.5
H     1.0   -9.7   -6.8
H    -4.4    8.1    7.5
H     6.1   -7.4    7.1
I   -10.1   -5.0   -3.7
N     1.1    6.1   10.1
H     5.1   -5.4   -9.3
I     6.1   -8.8   -5.2
H    -8.4    7.3   -4.3
H     8.9    5.5   -5.7
P     0.7  -10.8    5.0
H    -7.2   -7.9   -5.4
H    -9.0    7.9   -0.5
N    -3.4    8.5    7.7
H     4.7    8.1    7.5
H     5.9  -10.1    2.7
I     3.8   10.6    4.3
I     3.5    3.3   11.0
I    -8.8    3.0    7.7
H   -11.5   -2.3   -2.7
C    -8.0    7.2   -5.3
H     5.6    7.8   -7.2
P    -3.9  -11.1   -2.9
P    10.0    4.6    5.0
H    10.9   -5.3    0.1
N     5.2   -7.2   -8.2
H     1.0   -2.2  -11.9
H     9.1    7.9   -0.5
H    -3.2   -7.7   -8.9
H     4.3   -7.6   -8.4
H    -9.2    5.5   -5.7
H    -3.0    7.8   -8.9
N    -3.6    8.2   -8.2
N     9.9   -7.1   -0.2
H     1.7    5.5   10.7
I     3.7   10.6   -4.8
I     3.2    2.5  -11.6
I    12.1   -1.0    2.0
I   -10.6   -1.1   -6.1
H    -3.2    8.1    8.7
H     0.4   -7.3    9.9
H    -4.8   -7.6   -8.4
H     4.5    7.8   -8.4
I    -8.6   -4.5    7.6
H    -7.0   10.2    0.1
H   -12.1   -0.7   -2.4
H    -4.6    7.8   -8.4
I    -1.5    6.6  -10.4
H     6.3    8.1    7.1
I     9.3    3.0    7.7
I     7.7   -0.8    9.8
I    -9.0    2.7   -8.2
P     5.2  -11.1   -2.9
I     3.7   -4.6   11.1
I    -5.3   10.6    4.3
H    11.3   -0.3    5.5
I     9.1    2.7   -8.2
H    -8.6   -8.1   -4.3
H    10.1   -7.5    0.7
H    -7.0   -0.6  -10.5
I    -0.9    3.1   12.2
H     5.7   -7.3    8.7
I     7.6   -8.5    5.5
C    -8.0    9.8   -0.3
H     5.8   -1.1   11.3
I   -11.8   -0.9    4.7
N    -3.9   -1.5   12.1
H    -4.2   -2.4   11.8
H    -3.5   10.3    6.6
C   -12.4   -1.7   -2.6
I     6.1   -1.2  -11.2
I    -1.4  -12.3    3.1
I     1.8   -0.7   12.7
N     5.4    8.2   -8.2
I    -5.6    3.3   11.0
C    -8.2   -8.2   -5.3
P     0.7   -6.7  -10.9
I     2.2   -8.9   -8.9
N     5.6    8.5    7.7
I    -5.4   10.6   -4.8
H    10.5    5.2   -5.2
H     0.6    8.2    9.9
N     9.9    5.8   -5.8
I    -6.6   -8.6    7.0
H     9.7    7.3   -4.3
I   -11.0    6.7   -1.0
P    10.0   -6.4    5.0
H     4.3   -0.9   12.2
I    -6.6    6.6   -8.9
I     9.5   -4.5    7.6
P    -3.4   12.3    2.4
H    -8.6   -0.3   -9.7
H     0.5  -13.0    0.7
P   -12.7    1.3    2.4
