         400
 sphere cut out from bulk 
H    -0.0    0.5   -0.5
C    -0.2    1.5   -0.8
H    -1.3    1.7   -0.8
H     0.1    1.6   -1.9
N     0.5    2.5    0.1
H     0.2    2.4    1.0
H     1.5    2.3    0.0
I    -0.2   -2.9   -0.4
I     1.7    0.0    2.9
H     0.3    3.4   -0.2
P    -0.0   -2.6    2.8
H     3.4   -1.8   -0.6
I    -2.8   -0.9    2.8
I     2.2   -0.7   -3.5
I    -2.3   -0.2   -3.5
H    -3.7   -2.3    0.9
P    -0.3   -2.7   -3.6
I     4.1    2.0   -0.3
H    -3.9   -2.0   -1.5
I    -1.9    3.5    2.8
C     4.2   -2.5   -0.9
H    -3.3   -3.8    0.1
N    -4.1   -3.1    0.3
H     0.3    1.4    5.0
I    -4.8    2.0   -0.3
H     3.8   -3.3   -1.5
C    -4.7   -2.5   -0.9
P     4.4    1.7    2.9
H     0.3   -5.5   -0.2
H     4.1   -3.6    0.9
H    -0.3    1.8   -5.2
I     1.7    3.8   -3.7
H     5.0   -2.0   -1.5
P    -4.5    1.7    2.9
N     4.8   -3.1    0.3
H     5.2   -2.3    0.9
P     4.2    1.8   -3.6
H    -5.5   -1.8   -0.6
I     2.6   -4.4    2.8
I     2.6    4.5    2.8
H    -4.8   -3.6    0.9
I    -0.3    6.1   -0.4
H    -3.4    5.2    0.1
P    -4.7    1.8   -3.6
C     0.2    1.5    6.1
H    -5.1   -3.3   -1.5
I    -1.8   -5.4    2.8
I    -2.8    4.3   -3.8
H    -0.1    0.5    6.5
N     0.5   -6.5    0.1
I     1.7   -5.1   -3.7
I    -2.7   -4.6   -3.8
C    -0.5    2.0   -6.3
H     0.2   -6.6    1.0
I    -0.3   -2.8    6.0
H    -1.7    2.3    6.1
H     5.6   -3.8    0.1
H     3.5   -1.9   -5.4
I     6.1   -0.9    2.8
H     4.1    5.4    0.9
H     1.2    1.8    6.5
H     1.6   -6.6    0.0
H    -1.6    1.8   -6.5
H     3.8    5.6   -1.5
P    -0.1    6.3    2.8
N    -0.8    2.5    6.4
H    -0.6    3.4    6.1
H    -4.3   -2.9    4.7
H     0.1    0.2   -7.1
H    -0.3    3.1   -6.4
N    -4.1    5.9    0.3
P    -0.3    6.3   -3.6
H     4.6   -2.9    4.7
H    -3.0   -3.0    5.9
I    -0.0   -2.5   -6.9
H    -4.8    5.4    0.9
H     1.3    1.4   -7.0
N     0.3    1.2   -7.2
H    -1.3   -7.2   -0.8
C    -0.2   -7.4   -0.8
H     0.2   -7.3   -1.9
I     6.7   -0.2   -3.5
H     3.0   -2.6    6.4
I    -6.7   -0.7   -3.5
N     4.8    5.9    0.3
H     5.5    5.2    0.1
H    -3.7    6.6    0.9
H     2.7   -2.3   -6.8
N     3.6   -2.0   -6.5
N    -4.1   -3.2    5.7
C     4.2    6.4   -0.9
H    -7.4    2.3    0.0
H    -3.3   -2.8   -6.4
I    -4.4    2.1    6.0
I    -7.2    0.0    2.9
H    -5.2    5.6   -1.5
I     4.5    2.1    6.0
H     4.2   -1.3    6.5
H     7.6    1.7   -0.8
H    -5.4   -1.9   -5.4
H     3.8   -1.1   -6.8
H     3.4    7.1   -0.6
H    -0.9    2.6    7.5
C    -4.7    6.4   -0.9
I     4.0    1.6   -6.9
H    -4.7   -1.3    6.5
C     4.0   -2.4    6.7
H    -4.0    6.9   -1.5
I     4.2   -7.0   -0.3
N     4.9   -3.2    5.7
I    -6.3   -4.4    2.8
H    -0.5   -5.5    6.1
I    -6.3    4.5    2.8
H     0.1    1.5   -8.2
H    -4.2   -4.2    5.8
I     7.1    3.5    2.8
I     6.1    4.3   -3.8
I    -4.7   -7.0   -0.3
H     5.2    6.6    0.9
H     0.0   -8.5   -0.5
I    -4.9    1.6   -6.9
H     4.7   -4.2    5.8
H    -5.1   -1.1   -6.8
I     6.2   -4.6   -3.8
C    -4.9   -2.4    6.7
I    -0.4    6.1    6.0
N    -5.3   -2.0   -6.5
C    -4.3   -3.1   -6.9
H    -4.3    4.8    5.8
H     5.0    6.9   -1.5
H    -0.3   -5.8   -6.4
H     4.3   -4.0   -6.4
N    -8.4    2.5    0.1
H    -4.3    6.0    4.7
C     4.6   -3.1   -6.9
H     5.9   -3.0    5.9
H     4.7    4.8    5.8
C     8.7    1.5   -0.8
H    -0.2   -7.2   -5.2
H    -4.6   -4.0   -6.4
P     4.4   -7.2    2.9
H    -3.1    6.0    5.9
H     4.6    6.0    4.7
I    -2.9    8.0    2.8
H     8.9    0.5   -0.5
H    -8.9    0.5   -0.5
I    -7.2    3.8   -3.7
H     5.6   -2.8   -6.4
P    -4.5   -7.2    2.9
P     4.2   -7.1   -3.6
H     0.3   -7.5    5.0
H    -5.5    7.1   -0.6
N    -4.1    5.8    5.7
H    -8.7    2.4    1.0
H    -8.8    1.6   -1.9
N    -0.8   -6.4    6.4
H    -6.0   -2.6    6.4
I     8.7   -2.9   -0.4
H     4.3    4.9   -6.4
H     4.3   -2.6    7.7
H    -1.7   -6.7    6.1
P    -4.7   -7.1   -3.6
I     2.2    8.3   -3.5
H    -8.6    3.4   -0.2
C    -9.1    1.5   -0.8
I     1.8   -0.1    9.1
C    -0.5   -6.9   -6.3
I     7.1   -5.4    2.8
H    -4.6    4.9   -6.4
H    -4.6   -2.6    7.7
H     9.0    1.6   -1.9
H    -0.0    9.4   -0.5
I    -0.0    6.5   -6.9
N     4.8    5.8    5.7
H     9.1    2.4    1.0
H     2.9    6.3    6.4
H     3.5    7.0   -5.4
H    -4.3   -3.1   -7.9
I     1.7   -8.9    2.9
H    -6.3   -2.3   -6.8
H    -3.4    6.2   -6.4
I     1.7    9.0    2.9
I    -7.2   -5.1   -3.7
I    -9.1   -2.9   -0.4
C     0.2   -7.5    6.1
I    -2.7   -0.6    9.2
H     7.2    2.3    6.1
P     8.9   -2.6    2.8
P    -0.2   -2.6    9.3
H     4.7   -3.1   -7.9
H     1.2   -7.2    6.5
N     9.4    2.5    0.1
I    -2.3    8.8   -3.5
P     8.7   -2.7   -3.6
H    -1.6   -7.1   -6.5
P    -9.0   -2.6    2.8
H    -0.9   -6.3    7.5
H     9.2    3.4   -0.2
H     2.6    6.7   -6.8
H    -7.4   -6.6    0.0
H     7.3    1.8   -6.5
C    -4.3    5.9   -6.9
I    -2.2   -9.1   -3.5
H    -8.7    1.4    5.0
N     3.6    6.9   -6.5
C     4.6    5.9   -6.9
I    -4.4   -6.9    6.0
C     4.0    6.6    6.7
H    -8.6   -5.5   -0.2
I     4.5   -6.9    6.0
P    -9.2   -2.7   -3.6
H     5.8    6.0    5.9
H    -7.7    1.8    6.5
I    -1.9    0.0  -10.1
H     8.6    1.8   -5.2
H     1.4   -7.5   -7.0
H   -10.2    1.7   -0.8
H    -5.4    7.0   -5.4
P     4.2    1.9    9.3
I     6.1    8.0    2.8
I    -2.2    3.9    9.4
P    -0.1   -2.8  -10.1
H    -7.6    1.4   -7.0
I     2.3   -9.6   -3.5
C    -0.3   10.4   -0.8
I     2.5   -1.0  -10.1
H     5.5    6.2   -6.4
H     9.2    1.4    5.0
N     0.3   -7.7   -7.2
I     2.3    4.4    9.4
H     7.7   -7.2   -0.8
I     8.7    6.1   -0.4
C    -4.9    6.6    6.7
P    -4.7    1.9    9.3
N    -8.4   -6.5    0.1
H    -0.1   -8.4    6.5
I    -2.8   -9.9    2.8
C     8.4    2.0   -6.3
N     8.1    2.5    6.4
I     2.3   -4.6    9.4
H    10.4    2.3    0.0
C    -8.7    1.5    6.1
H    -9.2    1.8   -5.2
H     0.1   10.6   -1.9
H    -1.3   10.6   -0.8
H    -4.3    5.8   -7.9
I     1.5    3.5  -10.1
H     9.3   -5.5   -0.2
H     4.2    6.3    7.7
H    -6.0    6.3    6.4
H     4.2    7.6    6.5
I     4.1   -7.4   -6.9
N    -5.4    6.9   -6.5
I     8.6   -2.8    6.0
H     4.6    5.8   -7.9
H     8.4    3.4    6.1
I    -2.1   -5.1    9.4
H     8.8    0.5    6.5
H    -8.7   -6.6    1.0
H    -4.7    6.3    7.7
I    10.6    0.0    2.9
I    -9.2    6.1   -0.4
C     9.1    1.5    6.1
H     0.1   -7.5   -8.2
H     3.8    7.8   -6.8
H    -4.7    7.6    6.5
P     4.3    1.8  -10.1
H    -9.0    0.5    6.5
H     8.6    3.1   -6.4
I     6.2   -0.6    9.2
I    -4.9   -7.4   -6.9
P    -4.6    1.8  -10.1
I    -6.7    8.3   -3.5
H     0.2   -8.7   -7.1
P     8.8    6.3    2.8
P     8.6    6.3   -3.6
H     8.0    2.6    7.5
H    -8.8    0.2   -7.1
N    -8.6    1.2   -7.2
H     9.1   -6.6    1.0
H     3.5  -10.7   -0.6
I    -2.9    4.4  -10.0
P    -0.2    6.4    9.3
H     1.5   11.2    0.0
I    -2.8   -4.5  -10.0
P    -9.0    6.3    2.8
H     0.1   11.3    1.0
N     0.5   11.4    0.1
I    -9.3   -2.8    6.0
H    -6.3    6.7   -6.8
H    -0.6    1.2   11.4
H    -0.1    9.5    6.5
N     9.4   -6.5    0.1
H     9.1    0.2   -7.1
H     0.2   10.4    5.0
C     8.7   -7.4   -0.8
I     8.9   -2.5   -6.9
I    -8.9   -2.5   -6.9
C    -9.5    2.0   -6.3
H     7.2   -6.7    6.1
I     6.6    8.8   -3.5
H    -8.8   -7.3   -1.9
H     0.1    9.2   -7.1
I     1.6   -5.5  -10.1
H    -5.1    7.8   -6.8
I    -7.1   -0.1    9.1
I     4.1   10.9   -0.3
H    -9.3    3.1   -6.4
I   -10.8    3.5    2.8
H     0.6    2.5   11.4
I    11.1   -0.7   -3.5
H    -3.9  -10.9   -1.5
P    -9.2    6.3   -3.6
I   -11.2   -0.2   -3.5
H     8.4   -5.5    6.1
N     9.2    1.2   -7.2
H    -9.5    3.4    6.1
P    -0.2    6.1  -10.1
C    -9.1   -7.4   -0.8
H     9.1   -7.3   -1.9
I    -0.2  -11.8   -0.4
I    -7.2   -8.9    2.9
I    10.6    3.8   -3.7
I     6.7   -9.1   -3.5
P     4.3   10.7    2.9
I    -7.3    9.0    2.9
H    -3.7  -11.3    0.9
P    -0.0  -11.6    2.8
H    -0.3   10.7   -5.2
N    -9.7    2.5    6.4
I    -4.8   10.9   -0.3
P    -4.6   10.7    2.9
I     6.1   -9.9    2.8
I    -6.4   -1.0  -10.1
C     0.2   10.4    6.1
H    -5.5  -10.7   -0.6
H    -0.4    0.8  -12.0
P     4.2   10.8   -3.6
I   -11.7   -0.9    2.8
H     7.4   -7.1   -6.5
H    10.1    1.8    6.5
I     8.5    6.1    6.0
H    -8.8    1.5   -8.2
H     5.0  -10.9   -1.5
C    -0.2    2.0   12.0
P    -0.2  -11.6   -3.6
H    -4.2   -2.8   11.1
I    -6.7   -9.6   -3.5
H     0.7    2.1  -12.0
N     8.2   -6.4    6.4
I     6.7    3.9    9.4
H     8.6   -5.8   -6.4
C     4.2  -11.4   -0.9
H     9.0    1.5   -8.2
I     7.0    0.0  -10.1
H    -8.9   -8.5   -0.5
I    -6.7    4.4    9.4
P    -4.8   10.8   -3.6
H     4.7   -2.8   11.1
H     9.0   -8.5   -0.5
I    -6.6   -4.6    9.4
H    -7.7   -7.2    6.5
I   -10.8   -5.4    2.8
I    10.6   -5.1   -3.7
H     0.3   12.4   -0.2
C    -4.7  -11.4   -0.9
H    10.5   -6.6    0.0
H     8.7   -7.2   -5.2
P     4.3   -7.1    9.3
H   -10.5    1.8   -6.5
H    -8.6   -7.5    5.0
N     0.3   10.2   -7.2
H   -10.7    2.3    6.1
H     5.3  -11.3    0.9
H    -9.4   -5.5    6.1
H    12.4   -1.8   -0.6
H    10.2    1.4   -7.0
I     6.1    4.4  -10.0
H   -10.2   -7.2   -0.8
C     8.4   -6.9   -6.3
I     6.1   -4.5  -10.0
H     1.1   10.7    6.5
P    -4.6   -7.1    9.3
H    -1.0    2.7   12.3
H    -9.8    2.6    7.5
H     1.3   10.4   -7.0
H    -1.6   10.8   -6.5
C    -0.6   11.0   -6.3
I    -9.3    6.1    6.0
H    -9.2   -5.8   -6.4
H     3.5  -10.9   -5.4
I     6.8   -5.1    9.4
H     8.1   -6.3    7.5
N     0.3    1.3  -12.6
I    11.6   -4.4    2.8
N    -4.1  -12.0    0.3
I    11.5    4.5    2.8
I    -2.7    8.3    9.2
H     3.9  -10.0   -6.8
H    -9.2   -7.2   -5.2
