         400
 sphere cut out from bulk 
I     0.5    0.0    0.6
H    -1.5    1.3   -0.1
N    -2.4    1.7   -0.4
H     1.1    1.0   -2.6
H     1.8   -0.6   -2.5
H    -2.6    1.3   -1.3
C     2.0    0.4   -2.6
H     2.7    0.8   -1.9
H    -3.2    1.3    0.2
P     2.2   -2.3    2.1
P     2.1    2.2    2.4
H    -1.6    3.5   -1.0
C    -2.4    3.2   -0.4
H    -2.3    3.5    0.6
H    -1.6   -0.7    3.9
H    -1.5   -4.1    0.3
I    -3.1    0.0   -3.4
I     2.9   -3.8   -0.5
H    -2.2   -4.1   -1.4
N     2.7    0.6   -4.0
I     4.5    0.2    1.7
I     2.8    4.0   -0.3
I    -0.6    3.8    3.1
I     1.6   -0.1    4.7
H    -3.4    3.5   -0.8
I    -0.3   -3.9    3.1
I    -4.7    0.2    1.7
C    -2.3   -4.4   -0.3
H     2.0    0.3   -4.7
C    -2.0   -0.3    4.9
H    -3.3   -4.1    0.0
H     2.9    1.6   -4.2
I    -0.3    3.7   -3.8
H    -1.7    0.7    5.0
H     3.6    0.1   -4.0
H    -3.9    0.0    4.2
I    -0.6   -4.1   -3.9
H    -1.5   -0.9    5.7
N    -3.5   -0.5    5.0
H     6.0    1.3    0.2
I     0.0   -0.1   -6.2
H    -3.7   -1.5    4.8
N    -2.2   -5.9   -0.4
H    -1.3   -6.3   -0.7
P    -2.4   -2.2   -5.6
P    -2.3    2.2   -5.7
P     2.2   -5.4   -3.2
P     2.2    5.5   -3.0
H     5.3    0.0    4.2
H    -6.5    0.8   -1.9
H     2.8    6.1    1.2
H    -2.4   -6.4    0.6
H     6.6    1.3   -1.3
H     5.8    3.5   -0.8
H    -5.6    0.1   -4.0
I     4.3   -3.7    4.1
N     6.8    1.7   -0.4
I     6.1    0.0   -3.4
I     3.9    4.0    4.2
H    -3.8   -0.1    5.9
H     1.9   -1.5    6.6
H    -2.9   -6.3   -1.0
H     5.9   -4.1    0.0
I    -4.9   -3.7    4.1
H     0.9    6.9    2.5
I    -6.3   -3.8   -0.5
I     4.2    3.8   -4.8
H     5.4   -1.5    4.8
C     6.8    3.2   -0.4
I     4.1   -3.7   -5.1
I    -6.4    4.0   -0.3
N     5.7   -0.5    5.0
C    -7.2    0.4   -2.6
P    -7.0   -2.3    2.1
N    -6.5    0.6   -4.0
H    -6.3    1.6   -4.2
I     0.7   -7.6   -1.2
P    -2.5    5.4    4.9
N     2.7    7.1    1.5
P    -2.4   -5.5    4.9
H     7.7    1.3   -0.1
H     6.9    3.5    0.6
H    -7.4   -0.6   -2.5
I    -5.3    4.0    4.2
P    -7.1    2.2    2.4
H     1.1   -3.7    6.9
H     1.9   -7.1    2.9
I    -5.0    3.8   -4.8
I     0.6    7.8   -1.2
H     2.3    6.7    3.5
H     5.4   -0.1    5.9
C     1.9    7.3    2.7
H     2.2    4.1    6.5
H     2.3    7.6    0.7
H     1.5   -1.5   -7.7
N     2.0   -2.0    7.5
I    -5.1   -3.7   -5.1
H     2.4   -7.8    0.7
C     6.9   -4.4   -0.3
H     7.0   -4.1   -1.4
H     2.9   -3.7    6.8
C     2.0   -3.5    7.4
H     1.2   -1.6    8.1
H    -1.7    6.8   -4.7
H     7.6    3.5   -1.0
H     3.7    7.4    1.7
I    -4.1    0.0   -7.5
H     7.6   -0.7    3.9
H    -8.1    1.0   -2.6
H    -1.8   -6.3   -5.5
H    -7.2    0.3   -4.7
H     2.9   -1.6    7.9
I    -3.1   -7.6    2.6
I    -1.9   -3.8    7.5
H     3.1   -1.5   -7.9
H     7.7   -4.1    0.3
C     7.2   -0.3    4.9
H     2.3   -3.8   -7.5
I    -8.7    0.0    0.6
I    -1.9    3.9    7.6
C     2.0   -8.1    2.7
I    -3.2    7.8    2.6
N     2.2   -1.9   -8.3
N     2.8   -8.3    1.5
H     1.0   -8.5    2.5
I    -7.6   -0.1    4.7
H    -6.4    6.1    1.2
H     3.8   -7.9    1.7
H     6.3   -6.3   -1.0
C     2.0    4.5    7.5
H     1.1    4.1    7.9
H     7.5    0.7    5.0
H     1.8    8.3    2.9
I     5.1    0.0   -7.5
H    -3.3   -6.9   -4.9
H     1.3    4.2   -7.9
H    -3.0    6.3   -5.8
I    -4.5   -7.5   -2.6
P     6.8   -2.2   -5.6
N     7.0   -5.9   -0.4
H    -1.4    9.1   -0.7
P     6.9    2.2   -5.7
I     4.7   -7.5   -2.6
I    -1.6   -3.7   -8.3
C    -2.2    7.0   -5.7
H     3.1    4.2   -7.7
H     6.8   -6.4    0.6
I    -1.7    4.0   -8.2
P    -7.0   -5.4   -3.2
N    -2.6   -7.0   -5.7
C     2.2   -3.4   -8.5
H    -2.6    9.0    0.6
P    -7.0    5.5   -3.0
I     1.5    7.6   -5.3
H    -5.5    7.4    1.7
I    -4.3   -0.1    8.4
I    -0.3    7.6    5.6
H     2.1   -3.9    8.3
I     4.6    7.9   -2.6
I    -4.6    7.9   -2.6
H     1.3    6.4    6.9
I    -0.1   -7.8    5.6
H     2.1   -1.4   -9.2
H     2.8    4.1    8.2
I     1.6   -7.8   -5.3
H     7.7   -0.9    5.7
H    -1.4    6.9   -6.5
H    -3.1    9.1   -1.0
I    -0.2   -0.2    9.6
H     2.4   -8.7    3.5
I     9.7    0.0    0.6
I     4.9   -0.1    8.4
H    -5.4   -7.9    1.7
N    -6.5    7.1    1.5
C     2.3    4.6   -8.3
N    -2.4    9.5   -0.4
H     2.9   -9.3    1.2
H     1.3   -3.6   -9.0
N     2.1    5.9    7.5
P     6.6    5.4    4.9
H    -1.5   -8.6   -4.7
I     8.6    3.8    3.1
H    -3.0   -6.8   -6.6
H    -7.3   -1.5    6.6
H    -6.3   -3.7    6.8
H     2.1    6.5   -7.4
P     6.8   -5.5    4.9
H     3.0    6.3    7.2
I     6.1   -7.6    2.6
H    -6.1   -1.5   -7.9
H     7.9   -6.3   -0.7
I     6.0    7.8    2.6
I     8.9   -3.9    3.1
H    -6.9    6.7    3.5
H    -6.3   -1.6    7.9
H    -1.3   -0.8  -10.1
H     3.1   -3.6   -9.1
I     8.6   -4.1   -3.9
H    -6.9    7.6    0.7
C    -2.0   -8.4   -5.7
H    -6.8   -7.8    0.7
H     5.9   -6.9   -4.9
I     8.9    3.7   -3.8
H    -3.4    8.5   -4.9
H    -7.0    4.1    6.5
N    -2.7    8.4   -5.7
H     2.4    4.2   -9.3
H    -7.3   -7.1    2.9
N    -6.4   -8.3    1.5
N     2.3    6.0   -8.3
P     2.3   -9.9   -3.0
N    -7.2   -2.0    7.5
H     6.2    6.3   -5.8
H    -3.6   -0.0  -10.0
P    -2.5    2.1   10.1
C    -7.3    7.3    2.7
H    10.3    1.0   -2.6
H    -6.1    4.2   -7.7
P     2.1   10.0   -3.2
H     1.9    6.4    8.5
I    -9.5   -3.9    3.1
H    -1.3   -8.5   -6.5
H    -1.9    9.1   -5.5
H   -10.7    1.3   -0.1
P    -2.6   -2.3   10.2
C    -7.2   -3.5    7.4
H    -6.9   -3.8   -7.5
I    -9.5    3.7   -3.8
I    -9.8    3.8    3.1
H     6.1    9.1   -1.0
H    -1.5    0.8  -10.9
N    -7.0   -1.9   -8.3
I    -4.1   -7.7    6.8
H    -7.7   -1.5   -7.7
I    -9.2   -0.1   -6.2
C    -1.8   -0.2  -11.0
H    -8.3    6.9    2.5
I    -4.2    7.7    6.8
H    -6.4    4.1    8.2
I     9.2   -0.1   -6.2
H     1.5    6.5   -9.0
H    -2.9   -9.1   -5.8
I     7.3   -3.8    7.5
H     7.4   -6.3   -5.5
N     6.6   -7.0   -5.7
C    -7.2   -8.1    2.7
H     7.5    6.8   -4.7
I     7.3    3.9    7.6
H     6.6    9.0    0.6
C    -2.4   10.9   -0.3
H     3.2    6.4   -8.6
H    -8.1   -3.7    6.9
H    -3.2    8.6   -6.6
H    -6.3   -9.3    1.2
H     1.8    0.2   11.1
H     6.2   -6.8   -6.6
H    11.0   -0.6   -2.5
C    -7.2    4.5    7.5
I    -9.8   -4.1   -3.9
I     1.8    0.0  -11.2
P    -2.5    9.9    4.9
P    -2.4   -9.9    4.9
N    -3.2   -0.4  -10.9
H     5.8    8.5   -4.9
H   -10.8    3.5   -1.0
I     5.0    7.7    6.8
I     5.1   -7.7    6.8
H     5.6   -0.0  -10.0
C     7.0    7.0   -5.7
H    -1.7   11.3    0.3
H    -6.2    6.3    7.2
I    -8.5   -7.6   -1.2
H     1.5   -9.0    6.9
H   -10.7   -4.1    0.3
C    -7.0   -3.4   -8.5
H    -8.0   -1.6    8.1
H    -7.4    8.3    2.9
H    -6.1   -3.6   -9.1
C    11.2    0.4   -2.6
H    -6.8   -8.7    3.5
H   -10.8   -0.7    3.9
H    -2.3   11.3   -1.4
H    -3.5   -1.4  -11.0
H    -7.1   -3.9    8.3
N     6.8    9.5   -0.4
I    -8.6    7.8   -1.2
H    -1.7    6.8    9.4
H    -7.1   -1.4   -9.2
P    11.3    2.2    2.4
N   -11.6    1.7   -0.4
H    -3.4   11.2    0.0
C    -6.9    4.6   -8.3
I    10.8   -0.1    4.7
I     2.9  -11.4   -0.3
P    11.4   -2.3    2.1
H     2.2   -8.9   -7.4
I     7.5    4.0   -8.2
I     7.6   -3.7   -8.3
I    -0.5   11.5    3.1
H   -11.8    1.3   -1.3
I    -0.7   11.3   -3.9
I     2.7   11.6   -0.5
N    -7.1    5.9    7.5
I    -0.4  -11.6    3.1
H    -7.9    4.2   -7.9
H     3.1   -9.0    7.2
H     7.8    9.1   -0.7
H    -1.4  -11.9   -1.0
H   -11.5    3.5    0.6
H    -3.3   -6.9    9.3
N     6.5    8.4   -5.7
H    -1.4   -0.6  -11.9
H   -10.9    0.7    5.0
C   -11.6    3.2   -0.4
I     3.9   -3.8   10.8
H    -8.2   -8.5    2.5
H    -2.1  -11.9    0.6
I    -7.7    7.6   -5.3
H    -8.1    4.1    7.9
H     2.7    1.5   11.7
H    11.9    0.8   -1.9
I    -7.6   -7.8   -5.3
H    -7.1    6.5   -7.4
H   -11.4   -4.1   -1.4
N     2.4    0.5   11.9
H    11.2    0.3   -4.7
H   -10.7   -0.9    5.7
C   -11.2   -0.3    4.9
H    -3.2    6.2   10.0
I    -0.2  -11.6   -3.8
H    -7.9    6.4    6.9
H    -3.7    0.1  -11.7
H     7.8    6.9   -6.5
H   -10.5   -6.3   -0.7
N     2.2   -9.4    7.5
P     6.7    2.1   10.1
H    -6.8    4.2   -9.3
H     3.3   -0.0   11.9
H    -3.2  -11.9   -0.8
I     4.0    3.7   11.1
C   -11.5   -4.4   -0.3
H    -6.0    6.4   -8.6
H    -2.0   -6.4   10.3
P    -2.2   -5.4  -10.9
H     6.0    8.6   -6.6
P     6.6   -2.3   10.2
P    -6.9   -9.9   -3.0
N    -6.9    6.0   -8.3
C     7.2   -8.4   -5.7
N     6.0   -0.4  -10.9
H   -12.4    1.3    0.2
C    -2.3  -12.2   -0.4
H     7.7   -8.6   -4.7
H    10.0    6.9    2.5
I    -3.9   -7.6   -9.1
H     5.7   -1.4  -11.0
P    -2.3    5.5  -11.0
H    -7.9   -3.6   -9.0
H     6.3   -9.1   -5.8
N    11.9    0.6   -4.0
C    -2.4    6.9   10.2
H     2.0   -9.0    8.5
I     9.9   -7.6   -1.2
I     9.8    7.8   -1.2
I    -5.3   -3.8   10.8
I    12.0    4.0   -0.3
I    -0.6    3.6   12.1
H     5.8   11.2    0.0
I    -4.0    7.8   -9.1
I    12.1   -3.8   -0.5
I    -0.8   -4.2   11.9
P    -7.1   10.0   -3.2
N    -2.8   -7.1   10.2
I   -12.3    0.0   -3.4
N     2.4   -9.3   -8.3
H     1.7   -8.9   -9.0
I     4.1  -11.4    4.2
H    -1.5   -8.6    9.4
I    -5.2    3.7   11.1
I     0.1   -7.7  -10.3
H     7.3    9.1   -5.5
C     6.8   10.9   -0.3
H     3.3   -8.9   -8.6
H     7.9   -0.8  -10.1
I    -0.0    7.7  -10.3
H    -7.3    6.4    8.5
I    -3.3   -0.1   12.5
N   -11.4   -5.9   -0.4
H    12.1    1.6   -4.2
H     5.5    0.1  -11.7
H    10.3   -3.7    6.9
P     6.7    9.9    4.9
I     5.3   -7.6   -9.1
I     1.3    7.5   10.5
P     6.8   -9.9    4.9
H     5.9   -6.9    9.3
P    11.4   -5.4   -3.2
I     8.9    7.6    5.6
H    11.1   -1.5    6.6
P    11.4    5.5   -3.0
