         400
 sphere cut out from bulk 
H    -1.0    0.2    0.7
C    -1.5    1.0    0.1
H    -0.7    1.7   -0.3
H    -1.6   -0.1   -1.7
N    -2.2    0.4   -1.0
I     2.5    0.8   -0.4
H    -2.2    1.6    0.7
H    -3.0   -0.2   -0.8
I     0.2   -1.2    3.1
H    -2.7    1.2   -1.6
H     1.3   -3.2   -0.6
I    -0.1   -1.0   -3.5
P     2.7    0.7    2.8
I    -1.6   -3.7   -0.4
H     2.7   -2.9   -1.5
N     2.2   -3.6   -1.0
I     0.7    3.3    2.9
P     2.5    0.7   -3.6
H     2.4    4.0    0.5
H     3.2   -3.5    0.8
P    -1.7   -3.7    2.8
H     1.9   -4.3   -1.7
I     0.9    3.5   -3.7
C     3.0   -4.2    0.1
H     1.9    4.7   -1.7
H    -1.3    1.8    4.9
I    -4.3   -1.8    2.8
P    -1.8   -3.8   -3.5
I    -3.8    2.8    2.8
I    -1.6    5.3   -0.4
H    -0.9   -0.5    5.5
C     3.0    4.8    0.1
H     2.4   -5.1    0.5
I     4.6   -1.8    2.8
I    -3.7    2.6   -3.5
I     4.4   -1.9   -3.3
H     3.9    4.4   -0.4
N     2.1    5.4   -1.0
H     1.2    5.8   -0.6
I    -4.5   -1.9   -3.3
H     5.9   -0.2   -0.8
H     3.9   -4.6   -0.4
H    -2.8    0.9    5.4
C    -1.9    1.3    5.8
P    -1.7    5.3    2.8
N    -1.1    0.1    6.2
I    -6.4    0.8   -0.4
H    -2.4    1.1   -5.8
H     3.2    5.5    0.8
I     0.8   -5.7    2.9
I     5.1    2.8    2.8
H     6.2    1.2   -1.6
H    -0.1    0.4    6.6
P    -1.9    5.2   -3.5
H     2.8   -2.5    5.5
H    -5.0    4.4   -0.4
I     0.9   -5.5   -3.7
H    -5.7   -3.5    0.8
I     2.6    0.9    6.1
H    -0.3    0.2   -6.7
H     1.5   -3.8    5.4
N     6.7    0.4   -1.0
H    -5.0   -4.6   -0.4
I     5.2    2.6   -3.5
H     2.7    6.2   -1.5
P    -6.2    0.7    2.8
H     6.7    1.6    0.7
H    -6.2   -2.9   -1.5
H    -1.6   -1.0   -6.8
H     2.2   -2.5   -6.2
H    -2.0    2.0    6.6
I     2.4    0.7   -6.7
H    -1.6   -0.3    7.0
C     2.5   -3.5    5.9
C    -5.9   -4.2    0.1
N    -1.3   -0.0   -7.2
H     3.6    4.4    4.6
P    -6.4    0.7   -3.6
H    -0.7   -7.3   -0.3
C    -2.3    1.0   -6.9
I    -1.8   -3.8    6.1
C     7.4    1.0    0.1
H     3.7   -4.6    4.6
H     7.3   -0.1   -1.7
H     2.6    4.1   -5.8
C    -5.9    4.8    0.1
H    -6.5    4.0    0.5
H     3.1    3.6    6.0
H     1.5    5.3    5.4
N    -6.7   -3.6   -1.0
I    -3.8   -6.2    2.8
H    -2.2   -7.5    0.7
H    -1.9    2.0   -7.3
I    -2.1   -3.6   -6.7
H     7.9    0.2    0.7
N     3.4    4.5    5.6
H    -5.7    5.5    0.8
H     2.6   -4.9   -5.8
N     3.5   -4.5    5.6
H     2.3   -3.4    7.0
C     2.4   -3.2   -7.1
H    -3.2    0.7   -7.4
C    -1.5   -8.0    0.1
H     6.1    0.9    5.4
I    -1.8    5.2    6.1
I    -3.7   -6.4   -3.5
I     7.3   -3.7   -0.4
H    -6.5   -5.1    0.5
H    -1.1   -0.2   -8.2
H    -5.3    4.4    4.6
H    -7.6   -3.2   -0.6
H     1.4   -3.6   -7.4
H     8.2    1.7   -0.3
H    -7.0   -4.3   -1.7
H    -5.3   -4.6    4.6
I     0.1    7.8    3.1
H    -2.6   -7.8   -1.6
C     2.4    5.6    5.9
H     4.1   -4.1   -6.2
N     3.1   -4.4   -6.6
I     5.1   -6.2    2.8
H    -6.1   -2.5    5.5
P     7.2   -3.7    2.8
N     3.1    4.6   -6.6
H     4.4   -4.3    6.1
I     2.6   -8.2   -0.4
H    -7.0    4.7   -1.7
H    -4.5   -4.3    6.1
H     3.2   -5.4    6.0
I    -0.2    8.0   -3.5
N    -6.8    5.4   -1.0
P     7.1   -3.8   -3.5
I    -6.3    0.9    6.1
H     6.5    1.1   -5.8
H     2.9   -2.8   -7.9
H     4.4    4.7    6.1
H    -1.3   -7.2    4.9
I    -2.1    5.4   -6.7
I    -4.3    7.2    2.8
H    -1.0   -8.8    0.7
H    -4.8   -4.1   -6.2
H    -6.2    6.2   -1.5
N    -2.2   -8.6   -1.0
H     4.0    4.9   -6.2
I     4.3    7.1   -3.3
H     2.8    6.5    5.5
H    -4.5    4.7    6.1
H     3.3    3.9   -7.3
I     7.3    5.3   -0.4
I     4.6    7.2    2.8
I     5.3   -6.4   -3.5
N    -5.4   -4.5    5.6
N    -5.5    4.5    5.6
H    -5.8    3.6    6.0
I    -4.6    7.1   -3.3
P     2.7   -8.3    2.8
C     7.1    1.3    5.8
H     2.3    5.6    7.0
H     7.6    1.8    4.9
H    -1.6    8.9   -1.7
H     2.2    6.5   -6.2
I    -8.2    3.3    2.9
H     1.3    5.4   -7.4
H    -1.1    9.2    0.7
H    -3.0    8.8   -0.8
H    -4.9    4.9   -6.2
P     7.2    5.3    2.8
I    -8.7   -1.2    3.1
H    -1.5   -9.1   -1.7
P     2.6   -8.3   -3.6
C    -6.4   -3.5    5.9
H     5.7    0.7   -7.4
I    -6.5    0.7   -6.7
C     2.3    5.8   -7.1
P     7.0    5.2   -3.5
H    -6.7   -2.5   -6.2
H     3.3   -5.1   -7.3
H    -6.3    4.1   -5.8
I     8.8   -1.0   -3.5
I    -8.1    3.5   -3.7
I     1.0   -1.9    9.3
H    -7.7    5.8   -0.6
I     9.1   -1.2    3.1
C     6.6    1.0   -6.9
H     8.0   -0.5    5.5
H    -2.9   -9.2   -0.8
P     2.9    0.7    9.3
I    -3.3   -1.0    9.1
I    -9.0   -1.0   -3.5
H     6.9    2.0    6.6
N    -2.3    9.5   -1.0
N    -5.8   -4.4   -6.6
H    -9.6    1.7   -0.3
C    -1.8   -7.7    5.8
I     0.2    2.6    9.5
H    -2.0   -7.0    6.6
H    -6.3   -4.9   -5.8
H    -7.4   -3.8    5.4
N    -5.8    4.6   -6.6
H    -5.7   -5.4    6.0
H    -9.9    0.2    0.7
N     7.8    0.1    6.2
H     7.3   -1.0   -6.8
H    -5.7    3.9   -7.3
H     6.7   -7.5    0.7
H    -2.8   -8.1    5.4
I     2.5    9.8   -0.4
H    -2.4   -7.9   -5.8
P    -1.6   -3.8    9.3
I     7.1   -3.8    6.1
H    -1.0    8.5    5.5
I     0.4   -1.7  -10.0
C    -1.5   10.0    0.1
C    -6.6   -3.2   -7.1
H     7.3   -0.3    7.0
H    -6.6   -3.4    7.0
H     6.3   -7.8   -1.6
I     6.8   -3.6   -6.7
H    -6.0   -2.8   -7.9
P     2.5    0.8  -10.0
I    -0.1    2.7  -10.0
H     7.0    2.0   -7.3
H    -1.9   -7.0   -7.3
I    -8.1   -5.7    2.9
C    -6.5    5.6    5.9
I    -6.3   -8.2   -0.4
I    -8.0   -5.5   -3.7
C   -10.4    1.0    0.1
H     2.9    6.3   -7.9
H    -6.1    6.5    5.5
P     2.6    9.7    2.8
I     2.7   -8.1    6.1
N     7.7   -0.0   -7.2
H    -5.6   -5.1   -7.3
H    -7.4    5.3    5.4
I     9.6    3.3    2.9
H   -10.5   -0.1   -1.7
H     5.9    8.8   -0.8
I    -0.1  -10.1   -3.5
I     0.2  -10.2    3.1
H    -1.6    8.1   -6.8
P     2.5    9.7   -3.6
H    -2.7   10.2   -1.6
I     7.1    5.2    6.1
H    10.2   -3.2   -0.6
I     5.6   -1.0    9.1
P    -6.2   -8.3    2.8
H    -0.8   10.7   -0.3
I    -4.0   -1.2   -9.9
P    -1.7    5.3    9.3
H    -0.1   -8.6    6.6
C    -2.2   -8.0   -6.9
I    -4.3    3.5    9.3
H    -2.2   10.6    0.7
P    -2.0   -3.8  -10.0
H     8.6    0.2   -6.7
N    -1.0   -8.9    6.2
I     4.6    3.5    9.3
C     7.5   -8.0    0.1
N     6.7   -8.6   -1.0
H     8.8    0.4    6.6
I     6.8    5.4   -6.7
H     8.2   -7.3   -0.3
I     2.4   -8.4   -6.7
I     9.8    3.5   -3.7
P    -6.3   -8.3   -3.6
H     6.0   -9.2   -0.8
H    -0.9   -9.5    5.5
H    -0.3   -8.8   -6.7
P    -6.1    0.7    9.3
I   -10.5   -3.7   -0.4
N    -1.1    9.1    6.2
I     4.3    3.3   -9.7
H    -6.6    5.6    7.0
H    -7.5   -3.6   -7.4
I     4.9   -1.2   -9.9
N   -11.1    0.4   -1.0
H    -9.0    0.4    6.6
H    -6.7    6.5   -6.2
H   -11.1    1.6    0.7
H    -9.8   -0.5    5.5
I    -4.6    3.3   -9.7
C    -6.6    5.8   -7.1
H    -1.6    8.7    7.0
H     7.8   -0.2   -8.2
H    -2.3    0.2   11.1
H    -0.4    9.2   -6.7
H    -9.2    0.2   -6.7
I     0.2   -6.4    9.5
P    -2.1    5.2  -10.0
H   -10.2    1.8    4.9
H     6.1   -8.1    5.4
I    11.5    0.8   -0.4
H    -0.2    9.5    6.6
H    -1.5    1.7   11.3
H    -3.2   -8.3   -7.4
N    -1.3    9.0   -7.2
I     9.7   -5.7    2.9
P   -10.6   -3.7    2.8
N     6.6    9.5   -1.0
N    -1.2   -9.0   -7.2
I    -4.3   -5.5    9.3
H     7.7   -7.2    4.9
H     7.3    8.9   -1.7
H    -2.9   10.0    5.4
N    11.1   -3.6   -1.0
I    -6.4    9.8   -0.4
H    10.2    5.8   -0.6
H    -6.0    6.3   -7.9
I     1.0    7.1    9.3
H   -11.6    1.2   -1.6
I     4.6   -5.5    9.3
H    10.8   -4.3   -1.7
N   -10.0    0.1    6.2
I   -10.5    5.3   -0.4
H     6.5   -7.9   -5.8
H    -1.5   -9.4    7.0
I    -0.1   -6.3  -10.0
H     7.4   -9.1   -1.7
I     9.8   -5.5   -3.7
H     2.1   -3.3   11.2
H     7.9   -8.8    0.7
H     7.0   -7.0    6.6
H    10.8    4.7   -1.7
H   -11.9   -0.2   -0.8
I    -6.2   -8.1    6.1
H    -7.6    5.4   -7.4
P    -6.3    9.7    2.8
P    -6.4    0.8  -10.0
P   -10.8   -3.8   -3.5
P    11.6    0.7    2.8
H    -1.3   10.8    4.9
I    -4.2  -10.8    2.8
C     7.1   -7.7    5.8
H    -2.5   10.1   -5.8
I     2.6    9.9    6.1
C    -1.9   10.3    5.8
H    11.3    4.0    0.5
P    11.4    0.7   -3.6
I     2.4    9.7   -6.7
N    -2.0    0.9   11.8
H     6.2   10.2   -1.6
H    11.6   -2.9   -1.5
H    -9.6   -7.3   -0.3
I     4.4   -5.7   -9.7
I     4.7  -10.8    2.8
H    -1.1    8.9   -8.2
H    -1.5    1.0  -12.0
H     7.8    9.2    0.7
I    -8.8    7.8    3.1
H    -1.5  -10.0   -6.8
I    -4.5   -5.7   -9.7
P    -6.4    9.7   -3.6
P   -10.7    5.3    2.8
C   -10.8    1.3    5.8
I     4.4  -11.0   -3.3
H     2.7  -11.9   -1.5
I    -4.5  -11.0   -3.3
I    -7.9   -1.9    9.3
H     1.3  -12.2   -0.6
I     9.0    7.8    3.1
N    11.0    5.4   -1.0
H    -1.0   -9.2   -8.2
H    10.4   -3.8    5.4
I     8.7    8.0   -3.5
P     7.3   -3.8    9.3
I     0.4    7.3  -10.0
H     7.0   -7.0   -7.3
H     3.1    4.5   11.1
C    -2.3   10.0   -6.9
H    11.3   -5.1    0.5
H     3.2   -4.6   11.1
H    -0.3   -0.1   12.4
N   -10.2   -0.0   -7.2
C     7.4   10.0    0.1
C     6.7   -8.0   -6.9
P   -10.8    5.2   -3.5
H     5.7   -8.3   -7.4
H     6.7   10.6    0.7
H   -10.5   -1.0   -6.8
H    -2.3   -0.6  -12.3
I    -6.5   -8.4   -6.7
I    -9.1    8.0   -3.5
H     2.0   -3.0  -12.1
I    -3.4    8.0    9.1
H    -2.9    1.3   12.2
H   -10.5   -0.3    7.0
C    11.9   -4.2    0.1
H    12.1   -3.5    0.8
I     0.7   12.3    2.9
H    -3.2    9.7   -7.4
I    -3.7   11.6   -3.5
N     2.5   -4.0   11.8
P     6.9   -3.8  -10.0
H     2.0    5.7   11.2
I    -3.8   11.8    2.8
P     2.9   -8.3    9.3
C    11.9    4.8    0.1
H   -11.3    1.1   -5.8
H     7.3    8.1   -6.8
