         400
 sphere cut out from bulk 
P    -0.3    1.2    1.0
I    -0.2   -1.1   -1.3
I     2.2   -0.7    2.1
I    -2.7   -0.7    2.1
I     2.2    2.9   -0.3
P     2.2   -2.9   -0.2
I    -2.7    2.8   -0.4
P    -2.7   -3.0   -0.2
H    -0.3   -1.8   -3.8
H    -0.1    2.6   -3.5
H    -1.1    4.1   -1.9
I    -0.2   -4.5    1.1
I    -0.3    2.8    3.7
H     0.6    4.3   -1.9
P     4.7    1.3    1.0
I     4.7   -1.0   -1.3
N    -0.3    4.5   -2.5
H     2.2   -0.7    4.6
N    -0.3   -2.4   -4.6
C    -0.2    3.7   -3.7
P    -5.2    1.3    1.0
I    -5.2   -1.0   -1.3
H     0.6   -3.0   -4.5
H    -1.9    0.4    5.2
H    -1.1   -3.0   -4.6
I     2.2   -4.5   -3.0
H    -1.1    3.8   -4.3
H     0.6    4.0   -4.3
H     0.6   -0.9   -5.8
I    -2.6   -4.5   -2.9
H     1.5    4.6    3.6
H    -1.2   -0.9   -5.9
N     2.2   -0.7    5.6
C    -0.2   -1.5   -5.9
H     1.3    1.2    5.8
H    -0.4    5.5   -2.6
H     4.7   -0.9   -3.8
H     3.8    3.3   -3.6
H     1.4   -1.3    5.9
I     2.3    1.5   -5.6
H    -3.6   -0.2    5.2
H     3.9   -0.2   -5.1
H    -4.3    3.2   -3.5
C    -2.8    0.4    5.8
I    -2.7    1.5   -5.6
H     4.7    3.9   -2.1
H    -5.1   -0.9   -3.8
H     2.9    5.1    2.9
I     4.6   -4.5    1.1
I     4.6    2.9    3.6
H    -1.9    4.6    4.3
C     2.2    0.6    6.2
H     1.4   -5.9    2.5
H     1.5    5.9    2.5
H    -2.8   -5.3    3.0
H    -4.3   -0.2   -5.1
N     2.0    5.5    3.3
H     3.1    1.2    5.8
H     3.0   -1.3    5.9
H    -1.9   -4.8    4.4
H     2.8   -4.7    4.1
N     4.7   -0.8   -4.8
H    -5.2    3.9   -2.1
C     4.7    3.8   -3.2
H    -3.1    1.4    6.0
H    -0.5   -6.4   -2.6
I    -5.2   -4.5    1.1
I    -5.2    2.9    3.6
H     3.8   -2.6   -5.3
H    -0.2   -2.2   -6.7
N    -5.1   -0.8   -4.8
I    -0.3   -3.1    6.4
C    -5.2    3.8   -3.2
C    -2.8   -5.3    4.1
H     1.3   -5.2    4.9
H    -3.6    4.7    4.2
H     5.6    3.2   -3.5
H    -4.3   -2.6   -5.4
H    -2.3   -1.3    6.9
C     2.3   -5.5    4.4
I    -0.1    7.3    1.1
N    -2.7    5.2    4.6
I     7.1   -0.7    2.1
H    -3.7   -4.8    4.4
N     2.0   -6.4    3.3
H     5.5   -0.2   -5.1
N    -2.6   -0.4    7.1
C     4.7   -2.1   -5.6
H     2.2    0.6    7.3
H    -2.7    6.6    3.0
I     7.2    2.8   -0.4
H    -6.1    3.3   -3.6
P     7.1   -3.0   -0.2
H     3.9    5.7   -3.5
H     0.5   -7.5   -1.9
N    -0.4   -7.4   -2.5
H    -6.0   -0.2   -5.1
H    -1.9    0.1    7.6
C    -5.2   -2.1   -5.6
H    -4.3    5.7   -3.5
I    -7.6   -0.7    2.1
H     2.9   -6.8    2.9
N     4.7    5.1   -3.8
H    -1.2   -7.8   -1.9
H     3.8   -6.2   -3.5
C     2.3    6.4    4.4
H    -2.7    5.2    5.6
P    -7.6   -2.9   -0.2
H     6.3   -0.2    5.2
H     5.6   -2.6   -5.4
N    -5.1    5.1   -3.8
I    -7.7    2.9   -0.3
C    -2.7    6.6    4.1
H     1.4   -7.2    3.6
I     2.2    7.4   -3.0
I    -2.5    7.4   -2.9
H     2.9    5.8    5.2
H    -4.3   -6.2   -3.5
H     4.7   -1.8   -6.7
H    -3.5   -0.4    7.6
H     1.4    6.7    4.9
H     2.8   -6.1    5.2
H     4.8    5.1   -4.9
H    -6.1   -2.6   -5.3
I     4.6   -3.1    6.5
N    -2.8   -6.7    4.6
H    -1.8    7.1    4.4
H    -2.0   -7.2    4.3
H    -5.2   -1.8   -6.7
H    -5.1    5.1   -4.9
H     5.6    5.7   -3.5
H     2.9    7.2    4.1
I    -0.2    4.9   -7.3
I     4.7    7.4    1.1
I    -5.2   -3.1    6.5
H     6.3    4.7    4.2
H    -7.6   -0.7    4.6
H     0.6   -7.8   -4.3
H     6.2   -4.8    4.4
H    -5.9    5.7   -3.5
H    -6.7    1.2    5.8
H     5.5   -6.2   -3.5
C    -0.3   -8.2   -3.7
I     7.2   -4.5   -2.9
N     4.7   -6.7   -3.8
H    -6.9    5.1    2.9
I    -5.1    7.4    1.1
H    -3.6    7.1    4.4
P     2.2    3.0   -8.3
H     6.7    1.4    6.0
C     7.1    0.4    5.8
H    -3.6   -7.2    4.2
H    -6.8   -1.3    5.9
I     2.2   -3.1   -8.3
H    -2.8   -6.7    5.6
I    -0.3    1.5    9.1
H    -1.2   -8.0   -4.3
I     7.1    1.5   -5.6
P     2.3    8.9   -0.2
I    -2.7   -3.2   -8.2
P    -2.6    8.9   -0.2
I     2.1   -9.0   -0.3
P    -2.7    3.0   -8.4
H    -6.0   -6.2   -3.5
N    -5.2   -6.7   -3.8
H     7.1   -5.3    3.0
H    -7.0   -4.7    4.1
I    -7.7   -4.5   -3.0
H     4.6   -8.0   -2.1
I    -2.7   -9.1   -0.4
N    -7.7   -0.7    5.6
I    -7.6    1.5   -5.6
H     8.0    0.4    5.2
H     4.7   -6.8   -4.9
C     7.1   -5.3    4.1
P     9.6    1.2    1.0
I     9.6   -1.1   -1.3
I    -0.3   -9.0    3.7
H    -5.2   -8.0   -2.1
H    -5.2   -6.8   -4.9
I    -0.2    1.4   -9.7
C    -7.6    0.6    6.2
H     8.7    4.1   -1.9
C     4.6   -8.1   -3.2
I     2.2    5.3    8.0
H    -0.2   -9.3   -3.5
N     7.1    5.2    4.6
H     6.4   -0.4    7.6
I     4.7    5.0   -7.3
I    -2.7    5.3    8.0
H     0.6    8.9   -4.5
H     3.7   -8.6   -3.6
H    -1.0    8.9   -4.6
N    -7.8    5.5    3.3
I    -0.3   -6.9   -7.3
H     7.9    4.6    4.3
N     7.3   -0.4    7.1
C    -5.2   -8.1   -3.2
H     7.2    6.6    3.0
H    -7.0   -6.8    2.9
I    -5.1    5.0   -7.3
H    -8.4    4.6    3.6
I   -10.1   -1.1   -1.3
P    -0.3   -4.7    9.1
P   -10.1    1.2    1.0
H    -4.3   -8.6   -3.5
H     8.0   -4.8    4.4
I     4.7    1.4    9.1
H     7.6   -1.3    6.9
H     8.8   -3.0   -4.6
C    -7.6   -5.5    4.4
H    -8.5    1.2    5.8
H    -9.3    4.3   -1.9
H    -8.5   -1.3    5.9
H     6.2   -7.2    4.2
H     8.7    3.8   -4.3
H     7.1    5.2    5.6
H    -6.9    5.8    5.2
H     6.2    7.1    4.4
H     9.6   -1.8   -3.8
I    -5.1    1.4    9.1
C     7.1    6.6    4.1
H     8.7   -0.9   -5.9
H    -8.3    5.9    2.5
H    -7.6    0.6    7.3
N    -0.2    9.5   -4.6
H    -8.4   -5.9    2.5
H    -7.0   -6.1    5.2
I     2.2   -6.6    8.0
I     9.6    2.8    3.7
I     4.6   -8.9    3.6
P    -0.3   -4.7   -9.6
H     9.8    2.6   -3.5
N    -7.9   -6.4    3.3
P    -0.3  -10.7    1.0
N     7.1   -6.7    4.6
I     9.7   -4.5    1.1
H    -9.3   -3.0   -4.5
I     7.3    7.4   -2.9
I    -2.8   -6.6    8.0
H    -0.2   10.1   -3.8
C    -7.5    6.4    4.4
H    -6.9    7.2    4.1
N     9.5    4.5   -2.5
H     5.5   -8.6   -3.5
H    -9.9    2.6   -3.5
I     4.7    1.5   -9.7
N     9.6   -2.4   -4.6
I    -0.2   10.8   -1.3
I    -0.3    8.8    6.4
H    -9.2    4.0   -4.3
H    -9.2   -0.9   -5.8
H   -10.1   -1.8   -3.8
C     9.6    3.7   -3.7
I    -5.3   -8.9    3.6
P     2.2    3.0   10.4
I    -7.6    7.4   -3.0
I   -10.0   -4.5    1.1
H     8.0    0.1    7.6
I     4.6   -6.9   -7.3
I    -5.2    1.5   -9.7
H    -8.5   -5.2    4.9
H    -6.1   -8.6   -3.6
I   -10.1    2.8    3.7
I     2.2   -3.2   10.5
H     9.4    5.5   -2.6
H     7.0   -6.7    5.6
I    -2.7   -3.1   10.4
P    -2.7    3.0   10.5
H     1.5   -0.4  -11.1
P     4.6   -4.6    9.2
I    -5.2   -6.9   -7.3
I     7.1   -3.2   -8.2
C   -10.1    3.7   -3.7
N   -10.1    4.5   -2.5
C     9.6   -1.5   -5.9
H     3.8    9.3   -5.3
N   -10.1   -2.4   -4.6
P     7.2    8.9   -0.2
H    10.4    4.3   -1.9
P     7.2    3.0   -8.4
H    -4.2    9.2   -5.4
H     7.9   -7.2    4.3
P    -5.2   -4.6    9.2
I     7.1   -9.1   -0.4
H     3.1    0.1  -11.1
P     4.6  -10.6    1.0
H     8.0    7.1    4.4
H     9.3   -6.4   -2.6
P    -0.2    7.2    9.1
I     2.3   11.2    2.1
P    -7.6    3.0   -8.3
P    -7.5    8.9   -0.2
H    -8.4   -7.2    3.6
P     4.7   -4.7   -9.6
I    -2.7   11.2    2.1
I    -7.6   -3.1   -8.3
H    10.4   -3.0   -4.5
C   -10.1   -1.5   -5.9
H     8.7   -7.8   -1.9
H    -0.2    9.7   -6.7
H    -2.7    0.6  -11.5
P    -5.2  -10.6    1.0
H    -8.5    6.7    4.9
H   -10.9    4.1   -1.9
C    -0.2   10.3   -5.9
P    -5.2   -4.7   -9.6
I     9.5   -3.1    6.4
I    -7.7   -9.0   -0.3
I     4.7    8.8    6.5
I     4.7   10.8   -1.3
N     2.4   -0.4  -11.7
H     9.6   -2.2   -6.7
H   -10.3    5.5   -2.6
I     2.2  -10.3   -5.6
I     7.1    5.3    8.0
P    -0.2    7.2   -9.6
H    10.5    4.0   -4.3
H    10.5   -0.9   -5.8
I    -5.1   10.8   -1.3
H     5.6    9.2   -5.4
I    -5.1    8.8    6.5
I    -2.8  -10.4   -5.6
I     2.3    5.3  -10.7
H    -9.4   -7.5   -1.9
H     1.4   10.6    5.9
H    -0.3   -1.8   12.1
H   -10.9   -3.0   -4.6
I    -2.7    5.3  -10.7
I     9.7    7.3    1.1
H     1.3  -10.7    5.8
C     4.7    9.8   -5.6
H     2.7   -1.4  -11.9
H     2.3   11.2    4.6
I    12.1   -0.7    2.1
H    -6.0    9.3   -5.3
I    -7.6    5.3    8.0
N     9.5   -7.4   -2.5
I    -2.7    8.7   -8.2
I     2.3    8.8   -8.3
H   -10.1   -2.2   -6.7
P     2.2   -8.9   -8.3
I    12.0    2.9   -0.3
H   -11.0    3.8   -4.3
C    -5.1    9.8   -5.6
I   -10.2   -3.1    6.4
I   -10.0    7.3    1.1
P    12.1   -2.9   -0.2
H     0.7   11.0   -5.8
H   -10.4   -6.4   -2.6
H    -1.1   11.0   -5.9
H     3.1   10.6    5.9
H    -3.2  -10.5    6.0
H   -11.0   -0.9   -5.9
I    -0.2    5.0   11.5
H     4.8   10.9   -3.8
P    -2.7   -8.9   -8.4
H     8.6   -8.0   -4.3
P     4.7    7.2    9.2
H     3.0  -10.7    5.8
I     7.1   -6.6    8.0
H    11.2    1.2    5.8
H    -5.1   10.9   -3.8
I    -0.2   -3.1  -12.3
N     2.3   11.1    5.6
H    11.2   -1.3    5.9
H    11.3    4.6    3.6
I   -12.6   -0.7    2.1
P    -5.2    7.2    9.2
H    -2.2   10.5    6.9
I     2.2   -6.6  -10.7
H    -1.9  -11.5    5.2
H   -11.7    0.4    5.2
I   -12.5    2.8   -0.4
N   -10.2   -7.4   -2.5
I     2.2  -12.5    2.1
H    -9.3   -7.8   -4.3
I    -2.7   -6.6  -10.7
C    -2.7    0.6  -12.6
H    12.1   -0.7    4.6
P   -12.6   -3.0   -0.2
I    -7.7   -6.6    8.0
P     4.7    7.2   -9.6
H    10.3   -7.5   -1.9
H     4.7   10.1   -6.7
H     1.8    1.4  -12.8
C     2.1  -11.2    6.2
I     7.1   -3.1   10.4
I    -0.3  -12.9   -1.3
N     4.8   11.1   -4.8
H    -6.7    0.1  -11.1
H    11.3   -5.9    2.5
I    -2.8  -12.5    2.1
P     7.1    3.0   10.5
H    -1.9   -1.3  -12.8
I     9.6    4.9   -7.3
H    11.4    5.9    2.5
P    -5.1    7.2   -9.6
H     4.7   -2.2   12.0
H    -1.8    1.1  -12.9
