         400
 sphere cut out from bulk 
P     0.6   -1.3    0.6
I     1.6    1.0   -1.7
I    -1.1    0.7    2.3
I    -1.8   -1.5   -1.7
H     1.2    3.1    0.3
H    -3.3    0.5   -1.6
H    -0.4    3.8    0.3
H     0.2    3.0    2.5
C     0.6    3.9    0.6
P     0.7   -1.3   -3.7
I     3.3   -0.8    2.2
I     2.0   -3.2   -1.7
H    -3.5    2.2   -1.6
N     0.6    3.9    2.1
I    -0.3   -3.9    2.2
N    -3.9    1.3   -1.9
H     4.1    1.2   -1.6
H    -3.5   -3.0    0.1
H     1.6    3.9    2.4
H    -2.8    1.5   -3.7
H     1.0    4.8    0.3
H     1.2    3.1   -3.9
H    -4.9    1.2   -1.6
C    -3.9    1.3   -3.4
H     0.1    4.7    2.5
I    -2.4    4.5   -1.7
H    -2.9   -3.9    2.3
H    -0.4    3.8   -3.9
H     1.1   -0.5    5.4
C    -3.9   -4.0    0.4
H    -0.4   -1.4    5.4
N     5.1    1.3   -1.9
P    -3.9    1.2    3.9
H    -4.2    0.3   -3.7
H    -3.2   -4.8    0.1
C     0.6    3.9   -4.2
H     4.1   -4.2    0.0
H     5.6    0.5   -1.6
H    -4.4   -3.1    2.2
N    -3.9   -4.0    1.9
H     1.0   -5.6   -1.6
H     4.5   -3.1    2.2
N     0.6   -1.4    5.7
H     1.1   -2.2    5.4
I    -0.9    0.6   -5.9
H     4.8    0.3   -3.7
H     5.5    2.2   -1.6
I    -5.7   -0.8    2.2
H     4.4    2.1   -3.7
I     4.3    3.9    2.2
H     5.4   -3.0    0.1
H    -4.5    2.1   -3.7
C     5.1    1.3   -3.4
H     1.0    4.8   -3.9
H    -4.9   -4.2    0.0
C     5.1   -4.0    0.4
I    -4.7    3.9    2.2
P     5.1    1.2    3.9
I     2.5    1.9    5.8
I     3.0   -0.8   -5.8
N     5.0   -4.0    1.9
H     0.2    3.0   -6.1
I    -3.1   -1.3    5.9
H    -0.4   -6.6   -1.6
H    -0.1   -5.7   -3.8
N     0.6   -6.5   -1.9
I    -0.1   -3.6   -5.8
H    -4.4   -4.8    2.2
I     2.7    6.1   -1.7
N     0.6    3.9   -5.7
H     4.6   -4.8    2.2
I    -2.1    3.3    5.9
H     6.1    1.5   -3.7
H    -2.6   -3.2   -6.1
C     0.6   -6.5   -3.4
C     0.6   -1.4    7.2
H     1.6    3.9   -6.1
I    -1.2    7.0    2.2
H     5.8   -4.8    0.1
H     1.6   -6.3   -3.8
I     7.2   -1.5   -1.7
H     6.0   -3.9    2.3
P    -3.8    6.5    0.6
H     1.2   -7.3   -1.6
H    -0.0   -0.5    7.6
P     0.6   -6.5    3.9
I    -7.4    1.0   -1.7
H     0.1    4.7   -6.1
I     2.4   -4.5    5.7
H    -4.0   -2.3   -6.2
I    -2.9   -7.0   -1.7
I    -6.9   -3.2   -1.7
H     1.6   -1.3    7.6
H     0.1   -2.3    7.6
N    -3.5   -3.1   -6.6
I     3.2   -7.1    2.2
I     6.6    4.5   -1.7
I     7.8    0.7    2.3
H     4.9   -2.3   -6.2
I     4.2    4.1   -5.8
P     5.1    6.5    0.6
P     0.7   -1.2   -8.2
H    -7.7    3.1    0.3
H     0.2   -7.4   -3.8
P     0.7    4.0    7.3
I    -5.9   -0.8   -5.8
H    -4.5   -4.5   -5.5
H     4.5   -4.5   -5.5
P    -3.9    6.4   -3.8
I     5.9   -1.3    5.9
H    -3.3    5.7    5.3
P    -8.4   -1.3    0.6
I    -2.1   -5.9    5.8
H     1.2    8.3   -1.6
I    -4.8    4.1   -5.8
H    -2.8    1.5   -8.1
H    -7.3    3.9    2.4
H    -3.2   -2.8   -7.6
I     1.5    6.5    5.7
H    -3.2    2.4    7.9
C    -4.3   -4.3   -6.5
I    -6.5    1.9    5.8
I    -6.3    6.1   -1.7
I    -1.3   -8.6    2.2
H     0.3    8.2   -3.8
P     5.1    6.4   -3.8
H     3.8   -4.2   -7.1
I    -1.5    6.8   -5.8
N     5.5   -3.1   -6.6
H    -4.3    0.5   -8.0
C     4.7   -4.3   -6.5
H    -0.3    9.0   -1.6
H    -7.7    3.1   -3.9
P    -3.9   -4.0    7.3
P    -8.3   -1.3   -3.7
C    -8.3    3.9    0.6
I    -2.9    8.6   -1.7
H     4.6    0.5   -8.0
H    -3.6    0.1    8.5
H     3.8    1.0    8.4
H    -8.0    4.8    0.3
N     0.7    9.1   -1.9
H     8.5    3.8    0.3
C    -3.9    1.4   -8.4
I    -5.7   -7.1    2.2
H    -3.7   -5.1   -7.0
H     4.2    6.6    5.3
H     6.4   -3.2   -6.1
I     3.3    8.5    2.2
I     6.0   -7.0   -1.7
N    -8.3    3.9    2.1
N    -3.8    6.6    5.6
H    -4.4    2.3   -8.1
H    -7.9   -0.5    5.4
H     4.5    2.3   -8.1
H     5.6    5.7    5.3
H    -8.8    3.0    2.5
I     6.9    3.3    5.9
H    -3.3    7.4    5.2
P     9.6   -1.3    0.6
H    -4.8    6.6    5.3
H    -5.2   -4.2   -7.1
I     8.6   -3.9    2.2
P     5.0   -4.0    7.3
H    -0.1   -5.7   -7.9
C     0.6    9.1   -3.4
N    -3.4    2.1    8.9
H    -7.9   -2.2    5.4
I    -6.6   -4.5    5.7
I    -0.1    1.6    9.7
H    -8.0   -5.6   -1.6
H     5.7   -2.8   -7.6
H    -5.1    1.0    8.4
C     5.1    1.4   -8.4
H     9.1    3.0    2.5
P     0.6    9.1    3.9
H    -2.5    2.0    9.4
I     8.0    0.6   -5.9
I     1.5    1.3   -9.8
C    -4.2    0.9    9.0
I     2.6   -9.5   -1.7
P    -3.9   -9.2    0.6
I    -2.1   -1.9   -9.6
I     3.4   -7.4   -5.8
N     5.1    6.6    5.6
H     5.8    2.4    7.9
H     5.3    0.1    8.5
H    -7.9    4.8   -3.9
H    -9.4    3.8    0.3
H     8.5    3.8   -3.9
H     5.3   -5.1   -7.0
C    -8.4    3.9   -4.2
H     1.1   10.0   -1.6
C     4.7    0.9    9.0
H     1.7    9.3   -3.8
H     8.6   -1.4    5.4
N    -8.4   -1.4    5.7
H     6.1    1.5   -8.1
I    -9.3   -3.9    2.2
H    -7.4    3.9   -6.1
H    -8.8    4.7    2.5
H    -3.4   -8.2    5.2
H     1.6   -6.5   -7.9
H    -4.3    5.7    7.5
C     9.6    3.9    0.6
I   -10.1    0.7    2.3
P     9.6   -1.3   -3.7
H    -2.8    6.7    7.5
H    -7.4   -6.3   -3.8
I    -1.5   -3.6    9.7
C    -3.8    6.6    7.1
I    -5.6    8.5    2.2
P     5.0   -9.2    0.6
I     3.4   -2.3    9.7
H     4.7    5.7    7.5
I     2.5   -3.3   -9.7
H    -4.0    2.9    9.3
H     9.1    4.7    2.5
C     0.5   -6.6   -8.3
N     9.6    3.9    2.1
I     3.4    8.2   -5.8
H    -0.0    9.9   -3.8
H    -7.4   -1.3    7.6
H    10.2    3.1    0.3
I     7.7    7.0    2.2
H     5.6    7.4    5.2
P    -4.0   -9.2   -3.8
I    -1.6   -8.8   -5.8
N    -3.9    1.4   -9.9
N     5.5    2.1    8.9
I     6.1    8.6   -1.7
I    10.5    1.0   -1.7
H    -3.4    0.5  -10.2
I     6.9   -5.9    5.8
N    -8.4   -6.5   -1.9
H     0.9  -10.8    0.3
H    -7.8   -7.3   -1.6
H    -9.4    3.8   -3.9
N    -8.4    3.9   -5.7
H    -9.3   -1.4    5.4
I     1.4   -9.1    5.7
I    -2.0    4.5   -9.7
H     0.1   -7.5   -7.9
H     8.6   -6.6   -1.6
H     5.0    2.9    9.3
H    -4.4    0.7   10.0
I    -5.6   -7.4   -5.8
I   -10.8   -1.5   -1.7
C     5.1    6.6    7.1
H    -3.4    2.2  -10.3
H     4.5    0.7   10.0
H     0.0   -5.7    9.4
I     3.1    4.4    9.7
H    10.0    4.8    0.3
H    -8.8    3.0   -6.1
H     4.1    1.4  -10.2
P     5.0   -9.2   -3.8
P    -3.9    6.5   -8.2
C    -8.4   -6.5   -3.4
H     0.1  -10.9    2.5
C     9.6    3.9   -4.2
I     8.8   -3.6   -5.8
C    -8.4   -1.4    7.2
H     8.9   -5.7   -3.8
N     5.1    1.4   -9.9
H     5.6   -8.2    5.2
N     9.6   -1.4    5.7
H     4.1   -9.1    5.3
I    -0.9    5.8    9.7
H    -3.1   10.9    0.1
H    10.2    3.1   -3.9
P    -8.4   -6.5    3.9
H    -9.1   -5.7   -3.8
N    -3.9   -9.1    5.6
H     9.1    3.0   -6.1
H     0.2    8.1   -7.9
I    -5.6   -2.3    9.7
I    -9.1   -3.6   -5.8
H    -4.8    1.4  -10.2
H    -4.4    7.5    7.4
H    10.1   -0.5    5.4
I    -7.4    6.5    5.7
I    -2.0    9.7    5.8
I    -5.5    8.2   -5.8
H    -7.7    8.3   -1.6
H     0.9  -10.8   -3.9
H     4.6    7.5    7.4
I    -9.9    0.6   -5.9
I    -6.4   -9.5   -1.7
H    10.0   -5.6   -1.6
I    -2.5  -11.2   -1.7
H    10.6    3.9    2.4
H    -9.4   -6.6   -1.6
H    -4.9   -9.1    5.3
H     6.4    2.0    9.4
H     1.5   -6.5    9.5
I    11.0   -3.2   -1.7
P     5.1    6.5   -8.2
H     1.1   -5.7  -10.1
H    10.1   -2.2    5.4
H     5.6    0.5  -10.2
I     7.5    6.8   -5.8
I     2.5    5.9   -9.8
P    -8.3   -1.2   -8.2
N     9.6   -6.5   -1.9
P    -8.3    4.0    7.3
H     8.9   -0.5    7.6
H    -8.9    4.7   -6.1
H    -3.4   -9.9    5.3
H    10.0    4.8   -3.9
C     0.5  -11.7    0.6
N     0.6   -6.5   -9.8
I     7.7   -8.6    2.2
H    -0.1   -0.5   11.8
H     6.2    6.7    7.5
H    -9.0   -0.5    7.6
N     9.6    3.9   -5.7
N     0.6   -6.6    9.8
N     5.1   -9.1    5.6
H    -4.3   10.8    2.2
H     9.0    4.7   -6.1
H    -8.8   -2.3    7.6
H    -4.5   -8.1    7.4
H     4.5   -8.1    7.4
H     1.6   -1.1   11.7
H    -0.5  -11.9    0.3
H     5.6    2.2  -10.3
I    -0.2   11.7    2.2
N     0.6  -11.7    2.1
H     0.2   -2.3   11.7
H     4.6   10.8    2.2
I     6.9   -1.9   -9.6
H    -2.9   -8.9    7.5
I    -3.1   -6.4   -9.6
C     9.5   -6.5   -3.4
H     0.1   -7.4    9.5
H     1.6  -11.7    2.4
C     9.5   -1.4    7.2
H     9.1   -2.3    7.6
H    -0.4   -6.5  -10.1
H    -8.8   -7.4   -3.8
C    -3.9   -9.0    7.1
I    -6.5   -3.3   -9.7
C     0.6   -1.3   12.1
I    -5.9    4.4    9.7
H     4.2   11.4    0.0
P     9.5   -6.5    3.9
H     1.6    9.1   -7.9
P     0.6    3.9  -11.6
H    -2.9   11.7    2.3
C    -3.8   11.6    0.4
C     0.6    9.1   -8.3
I     4.2   -6.3    9.7
I   -11.4    4.5   -1.7
H     5.9   10.9    0.1
I    -7.5    1.3   -9.8
H   -12.3    0.5   -1.6
H    -4.8   11.4    0.0
H     9.2   -7.4   -3.8
P     0.7    3.9   11.8
N    -3.8   11.6    1.9
H    -7.3    9.3   -3.8
I    12.2   -0.8    2.2
H    -0.5  -11.8   -3.9
H   -11.8    1.5   -3.7
C     0.5  -11.7   -4.2
N    -8.3    9.1   -1.9
H    -0.0  -10.9   -6.1
H     0.2    8.2    9.5
H    -8.7    8.2   -3.8
C     5.1   -9.0    7.1
I    -4.8   -6.3    9.7
H     5.6   -9.9    5.3
I   -10.2    7.0    2.2
H     1.1   -7.4  -10.1
H    10.1   -7.3   -1.6
H     8.6    9.0   -1.6
H     1.2  -12.6    0.3
H    -7.4   -6.5   -7.9
I     4.2  -11.7    2.2
I     2.1   12.4   -1.7
H     0.0    9.9   -7.9
P     9.6   -1.2   -8.2
H   -12.4    2.2   -1.6
I     7.4   -3.6    9.7
C     5.2   11.6    0.4
H   -11.9   -3.9    2.3
I     2.5   11.1    5.7
P     9.7    4.0    7.3
I     6.9    4.5   -9.7
H    10.6    3.9   -6.1
H     0.1  -12.6    2.5
C    -8.3    9.1   -3.4
H    -7.9   10.0   -1.6
H    10.5   -6.3   -3.8
H   -12.5   -3.0    0.1
I    -4.8  -11.7    2.2
N     5.1   11.6    1.9
P    -3.9   -3.9  -11.6
P    -4.0   -9.1   -8.2
