         400
 sphere cut out from bulk 
H     0.5    0.3   -0.5
C     0.3    1.3   -0.1
H     0.2    1.3    0.9
H    -1.7    1.0   -0.5
N    -1.0    1.7   -0.8
H     1.1    2.0   -0.5
H    -0.9    1.7   -1.8
H    -1.0   -2.5    0.4
H    -1.3    2.7   -0.5
I     2.8   -1.5   -0.3
I    -3.3   -0.7    0.2
H     1.3   -3.3    0.4
C    -0.8   -3.5    0.0
H    -0.7   -3.5   -1.0
I     1.5    0.7    3.5
N     0.5   -3.9    0.6
H     0.5   -3.9    1.7
H    -1.5   -4.2    0.4
I    -0.6    1.6   -4.2
H     2.3    2.4   -3.4
I     3.7    3.0    0.2
P     4.4    0.3    2.0
H    -0.2    4.1    2.7
H    -0.1    2.3    4.3
H     0.8   -4.9    0.3
I    -2.1   -2.9   -3.6
I    -1.9    4.9    0.3
H    -1.7    3.0    4.3
I     0.1   -3.8    4.1
N    -0.7    3.2    4.6
H     3.5    4.0   -2.0
C    -0.1    4.3    3.8
C     3.2    2.9   -3.8
P    -4.9   -2.5   -2.0
H     4.1    2.3   -3.6
I    -4.0    2.6    3.6
H     0.9    4.4    4.1
P    -5.8    0.3    2.0
P     1.7   -1.6    5.7
P     5.3   -2.5   -2.0
N     3.4    4.2   -3.0
H    -2.7   -4.4    3.4
P    -2.3   -0.6   -5.9
H     2.6    4.8   -3.2
H    -0.6    3.4    5.6
I     4.6   -1.9    4.3
H     3.1    3.2   -4.8
H    -0.7    5.2    4.0
I     5.0   -0.2   -4.4
I    -4.2   -5.2   -0.2
H     0.3   -6.0   -2.9
H    -1.4   -5.0   -4.4
I    -5.2   -0.2   -4.4
I     6.9   -0.7    0.2
H     1.0   -5.4   -4.4
I    -6.4    3.0    0.2
I     0.4    6.1   -3.6
I     3.8   -4.8   -3.7
H     4.3    4.7   -3.4
C    -3.6   -4.9    3.8
H     3.5    0.4   -6.3
H    -4.5   -4.4    3.7
I     1.5   -7.1   -0.5
I    -5.6   -1.9    4.3
H     2.0   -0.1   -7.1
P    -4.8    5.3    1.9
C     0.4   -6.1   -4.0
H    -3.9   -6.0    2.1
H    -6.1    2.3   -3.6
I    -0.8   -0.5    7.4
P    -1.3    4.3   -6.0
I    -7.4   -1.5   -0.3
I     6.2    2.6    3.6
N    -1.0   -6.0   -4.6
I     0.3   -1.7   -7.5
N     2.9    0.6   -7.1
P    -2.1    7.1   -1.9
I    -3.6    5.3   -4.2
H     2.5    1.6   -7.1
P     5.4    5.3    1.9
I     2.9    6.4    3.5
N    -3.7   -6.2    3.1
H    -3.4   -5.2    4.9
I     6.0   -5.2   -0.2
H    -3.4    1.0    7.2
H    -6.7    4.0   -2.0
H     5.7   -4.4    3.7
H    -2.9   -6.8    3.2
H    -4.4    2.3    6.4
H    -2.8    2.7    7.1
H    -1.7   -6.7   -4.3
H    -5.9    4.7   -3.4
H    -0.9   -6.0   -5.7
C    -3.7    2.1    7.2
H     0.7   -7.1   -4.3
H    -4.3   -2.8    6.7
H     0.8    7.8    3.2
I    -2.9    2.0   -7.7
C    -7.0    2.9   -3.8
H     8.4    1.0   -0.5
N    -6.8    4.2   -3.0
I     1.7    3.8   -7.5
H    -0.9    7.9    3.4
I     3.2    0.2    8.1
H    -2.4   -2.3    8.1
I    -3.2    7.1    4.1
H     2.5   -3.6   -7.6
H     4.1   -4.8   -6.1
I    -6.4   -4.8   -3.7
H    -4.6   -6.7    3.4
I     0.0    3.9    7.9
H    -0.2    8.6    2.1
P     0.8   -6.6    5.9
P     4.4   -7.4   -1.9
H     5.8    2.3    6.4
N    -0.1    8.4    3.1
H    -7.9    2.4   -3.4
I    -0.8   -8.2    3.5
H     6.3   -6.0    2.1
I     2.3   -4.3    7.5
I    -5.0    7.5   -0.5
C     6.6   -4.9    3.8
I     5.2    7.5   -0.5
C     3.6    0.2   -8.4
H    -7.1    3.2   -4.8
I     3.3   -7.5    4.1
H    -6.7    0.4   -6.3
H     2.0    7.9   -4.3
H     3.9   -0.8   -8.4
I    -3.8   -2.4   -8.2
H     8.9    2.7   -0.5
H     7.5   -4.4    3.4
C    -4.4   -2.7    7.7
I     8.1   -2.9   -3.6
H    -9.1    2.0   -0.5
H     5.9   -2.8    6.7
H     5.6   -6.7    3.4
I    -8.7    0.7    3.5
N     9.2    1.7   -0.8
I    -0.5    9.4   -0.2
H     2.1   -5.3   -7.5
I     6.5    5.3   -4.2
N    -3.1   -3.0    8.4
H    -4.7   -1.7    8.0
H    -2.7   -3.9    8.1
H    -8.9   -3.3    0.4
N     6.5   -6.2    3.1
C     2.9   -4.6   -7.8
H     9.2   -2.5    0.4
H    -7.6    4.8   -3.2
P    -5.8   -7.4   -1.9
H     9.3    1.7   -1.8
N     4.2   -4.8   -7.2
H     4.4    0.9   -8.5
H     8.7   -4.2    0.4
I     8.3    4.9    0.3
H     2.9    0.4   -9.2
H    -9.7    0.3   -0.5
H     4.4    7.5   -4.3
P     1.7   -9.3    1.9
I    -3.2   -8.5   -3.6
H     6.7   -5.2    4.9
P     0.6    1.3    9.7
H     5.5   -1.7    8.0
N    -4.4    2.4    8.5
I    -2.1   -6.1    7.4
H     3.9    8.5   -2.9
P     7.9   -0.6   -5.9
H     4.9   -4.1   -7.5
H    -6.1   -4.8   -6.1
C     6.5    2.1    7.2
H     6.8    1.0    7.2
C    -9.9    1.3   -0.1
H     8.5    3.0    4.3
H     4.9    1.8    8.5
C     5.8   -2.7    7.7
C     9.4   -3.5    0.0
H    -5.3   -4.1   -7.5
I    -0.6   -6.1   -8.0
N     2.7    8.6   -4.6
H   -10.0    1.3    0.9
H    -5.2    1.8    8.5
H     5.1   -3.5    8.1
C     4.0    8.5   -4.0
H    -5.1   -3.5    8.1
H     9.5   -3.5   -1.0
N    -7.3    0.6   -7.1
H    -4.7    3.4    8.4
H    -3.8    2.2    9.3
H    -5.7    0.9   -8.5
I    -7.3    6.4    3.5
H    -1.1   -9.8   -3.2
P    -8.4   -1.6    5.7
H    -3.2   -2.9    9.4
C     0.1    9.7    3.8
H    -5.8    7.5   -4.3
N    -9.6   -3.9    0.6
H     4.5   -5.8   -7.4
H    10.3    1.3    0.9
H     7.3   -6.8    3.2
H     3.0   -4.7   -8.9
H     0.6   -9.9   -3.4
P    -1.2   -3.5   -9.9
H    -6.3   -0.8   -8.4
N     5.8    2.4    8.5
N    -6.0   -4.8   -7.2
C    10.5    1.3   -0.1
I     2.9   -9.3   -4.2
H    -7.6    1.6   -7.1
H    -9.4   -4.9    0.3
H     7.4    2.7    7.1
I    -1.3    6.6   -8.2
H    -9.7   -3.9    1.7
H     2.1   10.4    0.4
H     0.2    9.4    4.9
H     5.5    3.4    8.4
I     9.6    1.6   -4.2
H     2.7    8.6   -5.7
I     6.4   -2.4   -8.2
H     4.5    9.7    0.3
C    -6.6    0.2   -8.4
H    -3.5    1.5  -10.0
I    -7.0    0.2    8.1
H    10.7    0.3   -0.5
I     7.0    7.1    4.1
I     7.3    2.0   -7.7
H     2.3    9.6   -4.4
I     4.7   -9.7    0.3
H    -8.2   -0.1   -7.1
H    -0.2  -10.6   -2.0
H     0.9   10.2    3.4
N    -0.3  -10.4   -3.0
I    -2.7    9.8   -3.7
P     4.5    8.0    5.9
H    -0.8   10.2    3.7
I     4.6    5.7    8.1
H     2.0   -4.2    9.9
P     8.1    7.1   -1.9
I    -6.8   -7.5    4.1
N     9.5    3.2    4.6
H    -5.7   -5.8   -7.4
H    -6.3    8.5   -2.9
H    -9.3    4.4    4.1
H     8.8   -5.0   -4.4
H    10.0    4.1    2.7
H    -4.4   -9.4    4.0
I    -5.5   -9.7    0.3
H    10.0    2.3    4.3
I    -8.7   -7.1   -0.5
C    -6.2    8.5   -4.0
H     4.7    9.2   -4.4
H    -5.7    9.7    0.3
H    -2.7  -10.2    4.1
N   -11.2    1.7   -0.8
H    -7.6   -3.6   -7.6
H   -11.1    1.7   -1.8
I     1.6    8.5    7.4
I    -5.6    5.7    8.1
N     7.1   -3.0    8.4
H   -10.3    2.3    4.3
N    10.7   -3.9    0.6
H    11.3    2.0   -0.5
H   -10.8   -3.5   -1.0
H   -11.2   -2.5    0.4
P     1.7    6.1    9.5
P    -5.7    8.0    5.9
H     7.8   -2.3    8.1
C     2.9   11.1    0.0
N     4.2   10.7    0.6
H    10.7   -3.9    1.7
C   -10.9   -3.5    0.0
H   -10.4    4.1    2.7
H     6.4    2.2    9.3
I   -10.0   -3.8    4.1
H    -9.2   -5.4   -4.4
H     3.0   11.1   -1.0
H     9.5    5.2    4.0
I    -2.3    1.6   11.2
H    -3.9  -10.5    2.7
I     0.1  -11.6    0.2
C    10.0    4.3    3.8
I     7.0   -8.5   -3.6
H     4.1   10.7    1.7
P     8.9    4.3   -6.0
H     9.6    3.4    5.6
C    -3.8  -10.3    3.8
P     1.6    6.2   -9.7
H    -5.5    9.2   -4.4
H     8.5   -6.7   -4.3
H    -3.1    0.5  -11.2
C    -7.3   -4.6   -7.8
I   -10.8    1.6   -4.2
N    -3.6    1.3  -11.0
I    -7.9   -4.3    7.5
H    -2.0    8.8   -7.4
H     7.4   -3.9    8.1
I    10.3   -3.8    4.1
H     1.5   -3.2   11.2
H     5.8   -9.4    4.0
H   -11.4    2.7   -0.5
H    -7.3    0.4   -9.2
C   -10.3    4.3    3.8
H    -2.4    9.8   -6.1
N     1.9   -4.1   11.0
N     9.2   -6.0   -4.6
H    11.5   -3.3    0.4
I     9.3   -0.5    7.4
I    -8.5    3.8   -7.5
H    -2.0    2.6  -11.5
H   -11.9    1.0   -0.5
H    -9.9   -6.0   -2.9
H    11.0   -4.9    0.3
I     1.7   -3.7  -11.3
I     0.9   -1.0   12.0
I    -9.7    6.1   -3.6
I     3.1    8.5   -8.0
I     1.0   -8.9    8.1
I     2.3    3.5   11.3
H     7.0   -2.9    9.4
I     3.8   10.8    4.1
H     6.7    1.5  -10.0
H    -8.2    7.9   -4.3
H    -8.0   -5.3   -7.5
I    11.7    0.7    3.5
N   -10.9    3.2    4.6
I    -1.4   -1.1  -12.1
H    -4.6    1.1  -11.3
N    -6.0   10.7    0.6
C    -0.5  -11.7   -3.8
C    -9.8   -6.1   -4.0
H     1.2   -4.8   11.3
H     3.9   -3.5   11.2
N    -7.5    8.6   -4.6
N    -2.4    9.8   -7.2
P    -1.2   12.1   -2.0
H     4.9   11.3    0.4
I     1.6   11.7   -3.6
H    -7.2   -4.7   -8.9
H    -6.1   10.7    1.7
H     2.7   12.1    0.4
H     9.2   -6.0   -5.7
H    10.4   -6.0   -2.9
H    -0.5  -11.4   -4.8
C    -3.1    2.4  -11.8
H   -11.7   -4.2    0.4
I    -5.0   -8.0   -8.2
I     3.2    0.7  -12.0
H    -5.2   11.3    0.4
I    -7.3   -9.3   -4.2
I    -9.9   -1.7   -7.5
I     5.2   -8.0   -8.2
H    -4.1    5.0   10.7
H     6.3  -10.5    2.7
H   -10.8    3.4    5.6
H    -3.6    3.3  -11.6
I     8.1   -6.1    7.4
H    -9.4   -7.1   -4.3
H    11.1    4.4    4.1
H     9.2    7.9    3.4
H    -9.4    7.8    3.2
H     5.6    1.1  -11.3
H    -1.4  -12.1   -3.4
I    -3.5   -2.9   11.9
H    -4.4    9.3   -7.5
C     6.4  -10.3    3.8
H    -7.5    8.6   -5.7
H   -10.9    5.2    4.0
P    -8.4   -9.3    1.9
C     3.3   -4.3   11.6
I     2.5  -12.0    3.6
I    10.6    6.1   -3.6
H     0.4  -12.3   -3.6
C    10.5   -6.1   -4.0
P    -9.4   -6.6    5.9
H    -2.6  -12.6   -0.5
I     7.5    9.8   -3.7
N     6.6    1.3  -11.0
I    -0.0    4.5  -12.1
H    -4.9  -11.9   -0.5
P    -2.0   -8.5    9.5
P    -4.9  -10.3   -6.0
I    10.4   -1.7   -7.5
I     9.4   -8.2    3.5
H     3.7   -5.3   11.3
H   -11.9    3.0    4.3
H    -1.7   10.5   -7.5
I   -12.1    4.9    0.3
P    -2.1   -8.4   -9.7
H     5.3  -11.9   -0.5
N    -4.3  -11.4    4.6
P     5.3  -10.3   -6.0
I   -12.2   -2.9   -3.6
I    13.0   -1.5   -0.3
H    -3.2    4.2   12.0
I    -2.8   -5.7  -11.5
H    12.5    2.4   -3.4
H    -8.1   10.4    0.4
H    11.2   -5.4   -4.4
H    -7.9    9.6   -4.4
I    -6.4   10.8    4.1
