         400
 sphere cut out from bulk 
I    -1.3   -0.0    1.1
H     0.2    0.9   -1.9
H     0.5   -1.5   -1.9
N    -0.0    0.3   -2.7
H    -1.1    0.1   -2.7
H     0.6    2.6    1.4
C     0.7   -1.0   -2.8
H     1.8   -0.7   -2.8
P     0.6   -2.3    2.6
I     3.2   -0.8    1.5
H     0.1    0.9   -3.6
I     2.3    2.7   -1.2
C     0.4    3.3    2.1
H     0.4   -1.5   -3.7
H    -0.7    3.3    2.4
I     0.6   -4.1   -0.0
P    -3.9    1.4   -0.0
I    -2.1    3.5   -1.5
H     0.9    2.0    3.7
I    -3.6   -0.6   -2.6
N     1.1    3.0    3.4
H    -2.7   -3.7    0.8
H     0.6    4.3    1.8
H    -3.9   -2.7   -1.1
H     2.1    3.0    3.2
H     4.0   -3.0    0.2
P     4.9    1.4   -0.0
H    -3.4   -0.8    3.8
I     0.4   -0.3    5.2
H    -2.3   -0.1    4.8
H    -3.5    0.8    4.1
C    -3.3   -4.3    0.1
H    -2.7   -4.8   -0.6
N    -4.3   -3.4   -0.5
N    -3.3   -0.1    4.5
I    -2.1   -3.6    3.7
H     0.9    3.6    4.1
P     0.5    5.0   -2.6
H     4.0   -4.0   -1.2
N     4.6   -3.4   -0.5
H    -4.9   -3.0    0.2
H     5.0   -2.7   -1.1
I    -4.1    3.1    2.7
I     5.2   -0.6   -2.6
I    -5.7   -0.8    1.5
I    -1.2   -3.9   -4.3
I     0.4    3.1   -5.3
H    -3.9    2.1   -4.4
I     4.8    3.1    2.7
H    -3.8   -5.1    0.7
H    -4.9   -4.0   -1.2
I     2.3   -4.4    4.3
H     3.7   -0.3    5.4
P     0.5   -6.0   -2.6
I     3.2   -4.5   -3.6
H     5.5   -0.8    3.8
I     2.3   -1.0   -6.2
H     5.4    0.8    4.1
H    -2.7    6.2   -0.6
H    -3.9    3.9   -4.1
I     0.6    6.9   -0.0
H     0.7   -6.6    1.8
P    -3.8   -2.4   -5.3
H     5.0    2.1   -4.4
H    -2.3    3.3   -5.7
H     3.7    3.1   -5.1
C    -4.1    3.1   -4.8
C     5.6   -4.3    0.1
C    -4.1   -0.3    5.7
H    -3.9    5.9    0.7
I    -2.1   -0.3   -6.8
N     5.6   -0.1    4.5
H     5.0   -5.1    0.7
I    -6.6    2.7   -1.2
H     6.2   -3.7    0.8
I    -1.3    3.6    6.2
H     0.1   -2.5    6.9
H    -3.9   -1.3    6.1
C     4.8    3.1   -4.8
C     4.7   -0.3    5.7
C    -3.3    6.7    0.1
H     4.9    3.9   -4.1
H    -5.2   -0.3    5.4
H     0.9   -3.9   -6.4
H    -4.0    0.5    6.4
N    -3.3    3.3   -6.0
H    -7.1   -0.7   -2.8
P     5.0   -2.4   -5.3
I     7.6   -0.0    1.1
H     5.0    5.9    0.7
I     6.8    3.5   -1.5
H    -2.7    7.3    0.8
H     6.2   -4.8   -0.6
H    -5.2    3.1   -5.1
I    -2.0   -7.5   -1.5
H    -3.4    2.6   -6.7
C     0.4   -7.7    2.1
P     0.6    1.1   -7.9
H     5.0   -1.3    6.1
H    -6.7    3.0    3.2
I     3.1    6.5   -3.6
H    -0.7   -7.7    2.4
P     0.5    1.6    7.9
H     4.9    0.5    6.4
I    -5.7   -4.5   -3.6
H     3.9    7.0   -1.2
H     6.6   -0.1    4.8
I     3.1    3.1    6.9
I     2.3    6.6    4.3
H     7.8    0.1   -2.7
P    -3.9    5.2    5.2
I    -1.3    7.0   -4.3
N    -0.1   -3.1    7.8
H     0.4   -4.9    6.8
H    -3.5    4.2   -6.4
H     0.9   -7.3    4.1
I    -2.1    7.3    3.7
H     0.6   -8.4    1.4
I     6.8   -3.6    3.7
N     1.2   -4.6   -7.1
H    -1.1   -3.3    7.8
C    -8.1   -1.0   -2.8
C     5.5    6.7    0.1
H    -4.9    7.0   -1.2
I     2.3   -8.3   -1.2
P    -3.8   -5.8    5.2
H    -8.4   -1.5   -1.9
N    -4.4    7.5   -0.5
H     0.9    5.4   -6.8
N     1.2   -8.0    3.4
H    -8.3    2.6    1.4
H     6.2    6.2   -0.6
N     4.5    7.5   -0.5
H     0.9   -5.6   -6.8
H     2.2   -7.9    3.2
N     5.6    3.3   -6.0
H     2.2   -4.5   -7.3
H     1.8   -4.1    7.7
H    -8.6    0.9   -1.9
P     5.0    5.2    5.2
C     0.7   -4.4    7.7
H     3.9    8.0    0.2
H     0.2   -2.5    8.6
I    -6.6   -4.4    4.3
N    -7.8    3.0    3.4
P    -8.3   -2.3    2.6
H     5.5    2.6   -6.7
H    -8.0    2.0    3.7
H    -3.9   -7.1   -4.1
I    -6.5   -1.0   -6.2
P     0.5    8.7    2.6
H     8.2    3.3    2.4
H     0.4    6.1    6.8
H    -0.7   -4.3   -8.1
H    -3.9    8.3   -1.1
I    -2.1    0.1    9.0
I    -8.3   -4.1   -0.0
N     8.8    0.3   -2.7
I    -4.1   -7.8    2.7
P     5.0   -5.8    5.2
H     0.7   -3.3   -8.7
H    -8.4   -1.5   -3.7
N    -8.9    0.3   -2.7
H     6.6    3.3   -5.7
H     9.1    0.9   -1.9
C     0.4   -4.3   -8.4
I    -5.7    6.5   -3.6
C    -8.5    3.3    2.1
H     5.4    4.2   -6.4
H    -5.0    8.0    0.2
I    -5.8    3.1    6.9
H    -8.2    4.3    1.8
I     0.5   -7.9   -5.3
H    -8.8    0.9   -3.6
H     0.9    7.0   -6.4
H     6.1    7.3    0.8
H     5.0   -7.1   -4.1
I    -3.7   -4.0    7.9
I     4.8   -7.8    2.7
I     2.3   -0.7    9.3
I     7.7   -3.9   -4.3
N     1.1    6.4   -7.1
I     6.8   -0.3   -6.8
H     0.5    9.5   -1.9
I    -1.2   -7.3    6.2
H     9.4   -1.5   -1.9
H    -8.0    3.6    4.1
H     0.9   -8.9    3.7
H     9.0    0.9   -3.6
H     5.0    8.3   -1.1
H    -2.2   -7.7   -5.7
I    -4.1   -4.5   -7.8
I     3.2    2.6   -9.0
H    -3.5   -6.7   -6.4
H     9.5    2.6    1.4
H     0.5   -4.9    8.6
I    -8.5   -0.3    5.2
H     2.2    6.4   -7.3
I    -1.3    3.3   -9.4
C     9.2    3.3    2.1
C     9.6   -1.0   -2.8
P     9.5   -2.3    2.6
H    -2.7   -0.3   -9.7
P    -8.4    5.0   -2.6
C    -4.1   -7.9   -4.8
H     3.7   -7.9   -5.1
H     9.3   -1.5   -3.7
H     0.4    9.5   -3.7
I     4.8   -4.5   -7.8
C     0.7    6.6    7.7
I   -10.1   -0.0    1.1
N    -3.2   -7.6   -6.0
I     6.8   -7.5   -1.5
I    -6.6    6.6    4.3
H     0.3  -10.1   -1.9
I     5.2   -4.0    7.9
H    -9.9    0.1   -2.7
I     9.5   -4.1   -0.0
P    -3.9   -9.6   -0.0
C     4.8   -7.9   -4.8
H    -9.6    3.3    2.4
C     0.7   10.0   -2.8
H     0.7   -5.0   -9.1
I    -8.5    3.1   -5.3
H     1.8    6.9    7.7
I     7.6    3.6    6.2
H    -0.7    6.7   -8.1
H     0.5    6.1    8.6
I     0.6   -0.7  -10.5
P    -8.3   -6.0   -2.6
H    -3.8   -8.9   -4.4
I    -6.5   -8.3   -1.2
H    -2.7    2.8    9.8
I     6.7    7.3    3.7
H     9.5    4.3    1.8
H     9.8    2.0    3.7
H    -3.8   -1.7   -9.8
I     9.3   -0.3    5.2
H    -5.1   -7.9   -5.1
H    -8.2   -6.6    1.8
H     0.2  -10.1   -3.6
H     3.9    3.6    9.3
C     0.4    6.7   -8.4
I     3.2   10.1    1.5
H     5.4   -6.7   -6.4
I    -8.3    6.9   -0.0
P     5.0   -9.6   -0.0
H     1.8   10.3   -2.8
P    -3.9    8.6   -5.3
H    -6.7   -7.9    3.2
H    -6.7   -4.5   -7.3
I    -5.6    2.6   -9.0
H    -7.9   -3.9   -6.4
C    -3.3   -0.9  -10.4
H     0.1    8.5    6.9
I     3.2   -7.9    6.9
H     0.6    6.0   -9.1
P     9.4    5.0   -2.6
I    -4.1    6.5   -7.8
N    10.0    3.0    3.4
N    -0.0  -10.7   -2.7
H    -1.1    7.7    7.8
I     0.5    3.5   10.5
H     4.0    0.4  -10.3
I    -1.3   10.9    1.1
N    -0.1    7.9    7.8
H    10.7   -0.7   -2.8
H     5.1   -8.9   -4.4
I     9.3    3.1   -5.3
H    -5.0    3.6    9.3
I    -1.2  -11.0    1.1
H     5.1   -1.7   -9.8
I    -3.7    7.0    7.9
I     4.8    6.5   -7.8
I     7.6    7.0   -4.3
H     9.8    3.6    4.1
H    -7.1   -4.1    7.7
H    -1.0  -10.9   -2.7
N     5.7   -7.6   -6.0
H    -3.4   -8.4   -6.7
P     5.0    8.6   -5.3
I     6.8    0.1    9.0
I    -3.7   10.4   -2.6
H    -3.9    4.9    9.4
P    -4.0   -2.0   10.5
H    -3.5   10.2    3.8
I    -6.6   -0.7    9.3
H    -4.9    0.4  -10.3
H    -8.8   -2.5    6.9
H    -3.5  -10.1    4.1
H    -1.1   11.1   -2.7
N    -7.7   -4.6   -7.1
P     9.4   -6.0   -2.6
H     8.2   -7.7    2.4
H     6.2   -0.3   -9.7
P    -8.3    1.1   -7.9
H    -2.7   -1.4  -11.1
H     7.8   -3.3    7.8
I    11.2    2.7   -1.2
H    -8.0   -7.3    4.1
I   -11.0    3.5   -1.5
N    -0.1   11.3   -2.7
C    -3.4    3.3   10.6
N    -7.7   -8.0    3.4
H     9.0   -2.5    6.9
H     0.6    7.7   -8.7
C    -8.5   -7.7    2.1
P    -8.4    1.6    7.9
N    -4.4    4.1   10.0
H     6.7   -7.7   -5.7
I     9.4    6.9   -0.0
I   -10.1   -3.9   -4.3
N     4.5    4.1   10.0
I    -5.7   10.1    1.5
H     5.0    4.9    9.4
P     4.9   -2.0   10.5
I     5.2    7.0    7.9
H     9.6   -6.6    1.8
H    -8.0    5.4   -6.8
C     5.6   -0.9  -10.4
H    -6.7    6.4   -7.3
H    -8.2   -8.4    1.4
H    -7.9   -5.6   -6.8
N    -4.3   -0.0  -11.0
H    -3.9   -6.1    9.4
H    11.0    3.0    3.2
I     0.4   10.7    5.2
I     5.2   10.4   -2.6
H     0.6   -0.8   11.9
I    -5.7   -7.9    6.9
H    -8.4   -4.9    6.8
N     4.6   -0.0  -11.0
H     6.1    2.8    9.8
I     2.3   10.0   -6.2
H     0.2   11.9   -1.9
C    -8.1   -4.4    7.7
H     0.2    8.5    8.6
H     5.5   -8.4   -6.7
H    -3.9    2.5   11.2
H    -2.3   10.9    4.8
H    -3.9    9.7    6.1
H   -11.2   -0.1    4.8
H     5.4   10.2    3.8
I    -1.2   -7.6   -9.4
I   -11.0   -3.6    3.7
N     8.8   -3.1    7.8
H     1.8  -11.7   -2.8
H   -11.6   -3.7    0.8
H     5.4  -10.1    4.1
I    -1.3   -3.4   11.6
P    -3.9    4.8  -10.5
H    -3.8    0.7  -11.6
C     9.3   -7.7    2.1
N    -8.9   -3.1    7.8
I    12.1   -0.8    1.5
H    -2.2  -11.0    4.8
H    -2.7    3.9   11.3
N    -3.3   10.9    4.5
H     3.9    4.6   10.7
C     0.8  -11.9   -2.8
H     5.0   -6.1    9.4
I     7.6   -7.3    6.2
P     0.5   -9.4    7.9
N    -7.7    6.4   -7.1
P    -8.3    8.7    2.6
H     8.2   -4.3   -8.1
H     9.8   -3.9   -6.4
I     3.3  -11.8    1.5
N    -3.2  -11.0    4.5
H    -8.2   -3.3   -8.7
H     4.0   -0.6  -11.7
I    -3.6  -11.6   -2.6
P     9.4    1.6    7.9
H     0.6    0.9   12.3
H     0.1   11.9   -3.6
P     9.5    1.1   -7.9
H    -8.0    7.0   -6.4
C     5.5    3.3   10.6
H    -8.6   -2.5    8.6
I     0.5  -11.3    5.2
I   -10.2    3.6    6.2
H    -8.5    6.1    6.8
H     4.0   -7.3    9.3
H    -9.6   -7.7    2.4
H     5.0    9.7    6.1
H     3.7   10.7    5.4
H     5.0    2.5   11.2
H     0.5    1.9  -12.4
H   -11.6   -4.8   -0.6
H    -7.1    6.9    7.7
I     7.6    3.3   -9.4
H    -8.0   -8.9    3.7
H     9.3   -4.9    6.8
P     4.9    4.8  -10.5
H     5.0    0.7  -11.6
C    -8.5   -4.3   -8.4
C     0.3   -0.1   12.6
H     0.6  -12.5   -1.9
H    -5.0    4.6   10.7
P     0.6   -9.9   -7.9
