         400
 sphere cut out from bulk 
P    -1.2   -0.6    0.0
I     1.4    1.3    0.4
I     0.8   -3.2    0.5
I    -0.8   -0.8   -3.1
H     2.7   -0.2    1.9
I    -1.7   -0.4    3.2
I    -3.1    1.9   -0.4
H     2.8    0.6   -2.4
H     2.5   -1.8    2.3
H    -1.5    3.3    1.7
H     2.2   -0.9   -3.2
H    -1.6    2.2    3.0
N     3.1   -1.1    2.4
C     2.9   -0.1   -3.3
N    -1.6    3.2    2.8
I    -3.8   -2.5   -0.3
H     4.0   -1.3    1.8
H    -1.6    3.9   -2.0
H    -1.5    2.8   -3.4
H    -0.7   -3.3   -3.3
H     0.4    3.6    3.2
H     2.5   -0.5    4.3
H     2.8    0.5   -4.2
P     3.3    3.9    0.0
H    -4.0    0.2   -3.3
H    -0.7   -4.0    3.2
H    -4.5   -1.1   -2.4
C     3.5   -0.7    3.8
H     4.5   -1.1   -2.4
C    -1.6    3.9   -3.1
C    -0.6    4.0    3.5
H    -2.6    3.5    3.0
N     4.3   -0.6   -3.2
H    -5.0   -1.3    1.8
H     0.4    4.4   -3.4
H     4.1    0.1    3.8
N    -0.6   -4.3   -3.7
N    -4.7   -0.6   -3.2
H     0.4   -4.6   -3.4
H    -1.6   -5.1   -2.0
I     2.8    3.9   -3.1
I     5.2   -2.5   -0.3
I     0.8    5.9    0.5
H     5.0    0.2   -3.3
H    -0.7    5.0    3.2
N    -0.5    4.7   -3.7
H    -0.7    3.8    4.6
H     3.9   -1.6    4.3
H    -2.6    4.3   -3.5
P     3.3   -5.1    0.0
H    -4.5   -1.2   -4.0
H     4.5   -1.2   -4.0
H    -4.8    0.1    3.8
C    -0.6   -5.1    3.5
I     5.9    1.9   -0.4
H    -1.6   -5.7    1.7
C    -1.7   -5.1   -3.1
H     0.3   -5.5    3.2
H    -0.6   -4.3   -4.7
N    -5.8   -1.1    2.4
I     1.3    1.6    6.1
P    -1.1   -0.5    6.3
H    -2.6   -4.8   -3.5
I     3.9    4.0    3.2
P    -1.1   -0.5   -6.4
H    -6.3   -0.2    1.9
I     2.8   -5.1   -3.1
H    -0.6    5.7   -3.3
N    -1.7   -5.8    2.8
H    -0.5    4.7   -4.7
H    -6.2    0.6   -2.4
C    -5.5   -0.7    3.8
I     1.0   -2.9    6.0
H    -2.7   -5.5    3.0
H    -5.1   -1.6    4.3
P    -5.7    3.9    0.0
C    -6.1   -0.1   -3.3
H    -0.8   -5.2    4.6
I     1.3    1.5   -6.7
I    -3.2    1.8   -5.9
I     3.9   -5.0    3.2
H    -6.5   -1.8    2.3
I    -5.1    4.0    3.2
H    -1.5   -6.2   -3.4
I     0.9   -3.0   -6.7
I    -3.6   -2.7   -5.9
H    -6.2    0.5   -4.2
I    -3.7    6.5   -0.3
H    -6.8   -0.9   -3.2
H    -1.7   -6.8    3.0
P    -5.7   -5.1    0.0
I    -7.6    1.3    0.4
I    -3.2   -7.1   -0.4
I    -3.2    1.9    6.8
H    -6.5   -0.5    4.3
I     1.3   -7.7    0.4
I    -5.1   -5.0    3.2
P     7.8   -0.6    0.0
H     6.4    3.5    3.0
I    -6.1    3.9   -3.1
H     2.5    7.2    2.3
I     7.3   -0.4    3.2
I    -3.5   -2.6    6.8
P     3.4    3.9   -6.4
H     7.4    2.2    3.0
P     3.4    4.0    6.4
H     7.4    3.3    1.7
I     5.2    6.5   -0.3
H     6.4    4.3   -3.5
I     5.8    1.8   -5.9
I     5.4   -2.7   -5.9
P    -1.1    8.4    0.0
N     7.3    3.2    2.8
H     7.4    3.9   -2.0
I    -6.2   -5.1   -3.1
I     1.0    6.1    6.0
H     6.4   -4.8   -3.5
H     7.5    2.8   -3.4
H     2.5   -0.6   -8.4
P     3.4   -5.0    6.4
P     3.4   -5.1   -6.4
I    -8.2   -3.2    0.5
I     8.2   -0.8   -3.1
I    -0.7    8.2   -3.1
H     4.0    7.7    1.8
C     7.4    3.9   -3.1
H     6.3   -5.5    3.0
N     3.2    8.0    2.4
H     2.8    0.6    8.5
H    -0.8    3.7   -8.2
H     2.3    8.1   -3.2
I     1.0    6.0   -6.7
I     5.4   -2.6    6.8
H    -0.5   -4.2    8.0
H     7.3   -5.1   -2.0
I     5.8    1.9    6.8
I     5.8   -7.1   -0.4
H     2.7   -8.4   -2.4
P    -5.6    3.9   -6.4
H    -4.9    7.7    1.8
P    -5.5    4.0    6.4
H    -4.4    7.9   -2.4
I    -1.6    8.7    3.2
I    -3.5    6.4   -5.9
H    -0.5    4.8    8.0
H     2.8    8.8    1.9
H     4.0    7.4    4.3
H     4.6    7.9   -2.4
C     7.3   -5.1   -3.1
H     3.9   -1.7   -8.5
H     7.4   -5.7    1.7
H     8.3   -3.3   -3.3
C     3.4   -0.8   -8.9
I     1.2   -7.4    6.1
I    -0.7   -0.7    9.6
I    -1.7   -0.4   -9.5
P    -1.2   -9.6    0.0
H     8.3   -4.0    3.2
N     7.3   -5.8    2.8
C     3.5    8.3    3.8
H    -0.8   -5.3   -8.2
H     2.3   -0.8    9.5
H     4.1    0.0   -8.9
H     2.7   -9.3    1.9
H    -4.4    7.8   -4.0
H    -4.4   -1.2    8.7
H    -1.4    2.9    9.3
H    -8.6    3.6    3.2
I    -3.3   -7.2   -5.9
P    -5.6   -5.0    6.4
H     4.5   -1.2    8.7
H     4.6    7.8   -4.0
H    -5.0    7.4    4.3
H     2.6    8.5    4.3
H     2.7   -8.5   -4.2
C     3.0    0.0    9.5
P    -5.6   -5.1   -6.4
C     8.4    4.0    3.5
I    -7.7    1.6    6.1
H    -6.5    7.2    2.3
H    -0.7   -3.2    9.4
I    -3.5    6.4    6.8
C     3.0    9.0   -3.3
N     4.4    8.4   -3.2
N    -0.6   -4.2    9.1
C    -0.6    3.9   -9.2
H    -5.1   -1.7   -8.5
I    -1.7   -9.4    3.2
C     2.9   -9.1   -3.3
I    -8.2    5.9    0.5
I     1.2   -7.5   -6.7
H    -1.6    2.1   -9.7
N     8.4   -4.3   -3.7
N    -5.8    8.0    2.4
P     7.9   -0.5    6.3
N    -4.6    8.4   -3.2
H    -4.9    0.0   -8.9
P     7.9   -0.5   -6.4
P   -10.1   -0.6    0.0
H     0.4    3.5   -9.5
H     8.2    3.8    4.6
H    -8.6    4.4   -3.4
H     8.3    5.0    3.2
H    -4.0    0.3    9.4
I     9.7   -3.2    0.5
I    -9.7   -0.8   -3.1
H    -4.0   -8.8   -3.3
I     5.5    6.4   -5.9
H     7.5   -6.2   -3.4
N    -0.5    4.8    9.1
I    -0.8   -9.8   -3.1
H     2.8    9.6   -2.4
I    -7.7    1.5   -6.7
H    -8.6   -4.6   -3.4
N     8.5    4.7   -3.7
C     8.3   -5.1    3.5
H    -0.8   -4.1   -9.5
I    -3.2   -7.1    6.8
H     0.4    4.5    9.4
H     0.4   -4.5    9.4
H     7.3   -6.8    3.0
I     1.5   10.3    0.4
N     4.3   -0.5    9.5
I    -8.0   -2.9    6.0
I    10.4    1.3    0.4
H     9.4    3.6    3.2
C    -1.6    3.9    9.6
H    -2.5    4.3    9.2
H    -6.2    0.6    8.5
H    -3.9    9.2   -3.3
H     8.4   -4.3   -4.7
H     4.1   -8.9    3.8
C    -5.6   -0.8   -8.9
N    -1.7    3.1  -10.0
N    -4.6   -0.5    9.5
C    -0.7   -5.1   -9.2
C    -5.5    8.3    3.8
H    -6.5   -0.6   -8.4
H     4.9   -8.8   -3.3
H    -2.6    3.4   -9.7
H     2.2   -9.9   -3.2
H     8.4    5.7   -3.3
P    -1.1    8.5   -6.4
H    -2.6   -4.7    9.2
P    -1.0    8.6    6.3
H     5.0    0.3    9.4
H     2.8    0.7   10.3
H     8.2   -5.2    4.6
H    -8.7   -5.5    3.2
H     2.5   -9.5    4.3
H     4.2    9.1    3.8
H    -0.7    4.9   -9.5
H    -9.7   -3.3   -3.3
H    -6.3   -8.4   -2.4
I     2.9    4.0    9.6
H     8.5    4.7   -4.7
H     2.9    9.5   -4.2
N     3.1  -10.1    2.4
I    -7.6   -7.7    0.4
I     5.5    6.4    6.8
N     3.1   -1.1  -10.4
H    -4.9   -8.9    3.8
H     2.4   -1.9  -10.4
I    -8.1   -3.0   -6.7
H     9.4    4.4   -3.4
I     5.7   -7.2   -5.9
H    -6.2    8.8    1.9
C    -9.6    4.0    3.5
H     9.3   -4.6   -3.4
H    -4.8    9.1    3.8
H    -9.7   -4.0    3.2
N     4.3   -9.6   -3.2
H     5.1    9.2   -3.3
C    -1.6   -5.1    9.6
H    -6.7    8.1   -3.2
C     3.4   -9.8    3.8
H     0.3   -5.5   -9.5
I     3.9    4.0   -9.5
H    -0.6    5.8    9.4
N    -9.6   -4.3   -3.7
I   -10.7   -0.4    3.2
H   -10.5    3.3    1.7
H     2.7   -0.3  -10.8
N    -4.7   -9.6   -3.2
H    -1.5   -6.1    9.3
I     2.8   -5.1    9.6
C    -6.0    0.0    9.5
H   -10.6    2.2    3.0
H     3.9  -10.4    1.8
N    -9.5    4.7   -3.7
H     9.3   -5.5    3.2
C    -6.0    9.0   -3.3
H     4.4  -10.1   -2.4
H    -4.5   -1.0   10.4
H     2.4  -10.9    2.3
H    -9.7    5.0    3.2
H    -4.5  -10.1   -2.4
H   -10.4    2.8   -3.4
H    -6.3   -9.3    1.9
H     4.5   -1.0   10.4
I    -3.1   11.0   -0.4
H    -6.2   -8.5   -4.2
H    -9.7    3.8    4.6
I     5.7   -7.1    6.8
C    -9.6   -5.1    3.5
I     9.8    5.9    0.5
C    -6.1   -9.1   -3.3
N   -10.6    3.2    2.8
P    -1.1   -9.5    6.3
I     3.8   -5.1   -9.5
H   -10.6    3.9   -2.0
H    -9.6   -4.3   -4.7
H    -6.4    8.5    4.3
I    -5.1    4.0   -9.5
P     7.9    8.4    0.0
H    -2.7   -5.6   -9.7
H    -1.6    4.0   10.7
H    -1.6    3.2  -11.0
P    -1.2   -9.6   -6.4
H    -9.5    4.7   -4.7
H    -6.7   -0.8    9.5
H     3.9   -1.4  -10.9
H    -6.2    9.6   -2.4
H    -5.1  -10.4    1.8
H    -9.6    5.7   -3.3
H    -1.6   11.2    3.0
N    -1.7   -5.9  -10.0
H    11.2   -0.9   -3.2
C   -10.6    3.9   -3.1
I    -8.0    6.1    6.0
I     7.4    8.7    3.2
H    11.4   -1.8    2.3
H    11.7   -0.2    1.9
H     3.9    7.3   -8.5
C    -5.6   -9.8    3.8
H     4.5  -10.2   -4.0
H    -4.5  -10.2   -4.0
P   -10.1   -0.5    6.3
N    -5.9  -10.1    2.4
H    -1.6   -5.0   10.7
I    -5.1   -5.1   -9.5
H   -10.6   -5.1   -2.0
N    -5.9   -1.1  -10.4
P   -10.1   -0.5   -6.4
H    -9.8   -5.2    4.6
I     9.9   -2.9    6.0
I     7.3   -0.4   -9.5
H    11.8    0.6   -2.4
H    -6.2    0.7   10.3
I    10.3    1.6    6.1
I    -6.1    4.0    9.6
I    -8.0    6.0   -6.7
H    -1.7   -6.9   -9.7
H    -6.1    9.5   -4.2
H     6.4    4.3    9.2
H    -5.0   -1.4  -10.9
H     3.9  -10.6    4.3
I     8.3    8.2   -3.1
H     6.3    3.4   -9.7
I    -3.9  -11.5   -0.3
H   -10.6   -5.7    1.7
H     8.2    3.7   -8.2
H     6.4   -4.7    9.2
H     2.5    8.4   -8.4
I     0.7  -12.2    0.5
C   -10.7   -5.1   -3.1
I   -12.1    1.9   -0.4
I     7.2   -9.4    3.2
H    -5.1    7.3   -8.5
H    11.5   -0.5    4.3
I    -7.8   -7.4    6.1
H    -6.5   -9.5    4.3
H     2.8   -8.5    8.5
I    10.2    1.5   -6.7
I     9.9   -3.0   -6.7
I     1.3   10.6    6.1
H     7.6    2.9    9.3
C    11.9   -0.1   -3.3
H     7.3    2.1   -9.7
P     7.8   -9.6    0.0
H     8.4   -4.2    8.0
N    12.1   -1.1    2.4
H    -1.4   11.9   -3.4
I     5.9   11.0   -0.4
H    -6.8   -9.9   -3.2
I     1.4    1.3  -12.3
H    -6.6   -1.9  -10.4
N   -10.7   -5.8    2.8
I    -6.2   -5.1    9.6
H   -11.6    3.5    3.0
H    -1.5   12.3    1.7
H    -4.4    7.9    8.7
H    11.8    0.5   -4.2
H    -1.6   -5.8  -11.0
H    -6.3   -0.3  -10.8
I     1.3   10.6   -6.7
H    -5.1  -10.6    4.3
H     4.6    7.9    8.7
I     5.1  -11.5   -0.3
C     3.5    8.2   -8.9
