         400
 sphere cut out from bulk 
P    -1.1   -0.6   -0.0
I     0.8    2.0   -0.4
I     1.4   -2.6    0.4
I    -1.2   -0.1    3.1
I    -1.0   -1.0   -3.1
H     2.3   -1.4   -2.2
H    -0.7    2.8   -2.3
H    -0.1    3.2    2.2
I    -3.6    1.4   -0.4
H     2.3    0.9   -3.1
H     2.9   -1.8    2.3
H     2.8    0.5    3.1
C     2.9   -1.1   -3.1
H     3.7    0.6   -2.3
I    -3.0   -3.2    0.4
N     3.2    0.3   -3.1
H    -2.2    2.6   -3.1
N    -1.3    3.1   -3.1
H    -1.6    2.9    3.1
C    -0.7    3.5    3.1
H    -1.5   -4.0    2.3
H     2.3   -1.4   -4.0
H    -0.1   -3.7    3.1
H     4.3    0.2    2.2
C     3.8   -0.0    3.1
N     3.5   -1.5    3.1
H    -0.7    2.8   -4.0
H    -4.6    0.2    2.2
H    -0.1    3.2    4.0
H    -0.6   -4.1   -3.1
P     3.3    4.0   -0.0
H     3.9   -1.7   -3.1
H     2.9   -1.8    4.0
H    -2.1   -4.4   -2.2
N    -1.0   -4.3    3.1
I     5.3    1.4   -0.4
H     3.7    0.6   -4.0
H    -5.2    0.6   -2.3
H    -2.1    4.8   -2.2
I     3.2    3.6    3.1
H     4.4   -2.0    3.1
C    -1.5    4.6   -3.1
C    -1.5   -4.6   -3.1
H    -1.5   -4.0    4.0
H    -4.5   -2.0    3.1
H    -1.5    5.2    2.3
H     4.3    0.2    4.0
N    -1.0    4.9    3.1
C    -5.1   -0.0    3.1
H    -0.6    5.1   -3.1
H    -4.6    0.2    4.0
P     3.3   -5.2   -0.0
H    -5.0   -1.7   -3.1
I     0.8    2.0   -5.8
H    -0.1    5.5    3.1
H    -2.1   -4.4   -4.0
H    -0.1   -6.0    2.2
P    -1.1   -0.6    6.3
P    -1.1   -0.6   -6.3
N    -5.4   -1.5    3.1
I     3.5    4.5   -3.1
I     1.4   -2.6    5.8
N    -5.7    0.3   -3.1
H    -5.2    0.6   -4.0
C    -0.7   -5.7    3.1
H    -6.0   -1.8    2.3
H    -2.1    4.8   -4.0
I     3.5   -4.7   -3.1
I     5.9   -3.2    0.4
H    -1.5    5.2    4.0
I    -3.0    6.0    0.4
H    -0.7   -6.4   -2.3
I     1.4    6.6    0.4
C    -6.0   -1.1   -3.1
P    -5.6    4.0   -0.0
H    -6.1    0.5    3.1
N    -1.3   -6.1   -3.1
I    -3.6    1.4   -5.8
I     0.8    2.0    6.7
H    -6.6   -1.4   -2.2
I     3.2   -5.6    3.1
H    -1.6   -6.3    3.1
H    -0.1   -6.0    4.0
I     0.8   -7.2   -0.4
I    -3.0   -3.2    5.8
I     1.4   -2.6   -6.7
H    -6.6    0.9   -3.1
H    -6.0   -1.8    4.0
I    -5.7    3.6    3.1
H    -0.7   -6.4   -4.0
P    -5.6   -5.2   -0.0
H    -2.2   -6.6   -3.1
I    -5.4    4.5   -3.1
I    -3.6    1.4    6.7
P     7.8   -0.6   -0.0
H    -6.6   -1.4   -4.0
I    -5.4   -4.7   -3.1
H     6.8    2.6   -3.1
I    -7.5   -2.6    0.4
I     5.3    1.4   -5.8
I    -3.0   -3.2   -6.7
P     3.3    4.0    6.3
P     3.3    4.0   -6.3
I     7.7   -0.1    3.1
H     2.9    7.4    2.3
I    -8.1    2.0   -0.4
H     6.8   -4.4   -2.2
I     5.9    6.0    0.4
H     7.3    2.9    3.1
H     2.3    7.8   -2.2
I     7.9   -1.0   -3.1
I    -5.7   -5.6    3.1
I    -3.6   -7.8   -0.4
H     6.8    4.8   -2.2
I     5.3    1.4    6.7
P    -1.1    8.6   -0.0
H     7.4   -4.0    2.3
P     3.3   -5.2    6.3
P     3.3   -5.2   -6.3
N     7.6    3.1   -3.1
I    -1.0    8.2   -3.1
I     5.9   -3.2    5.8
I    -3.0    6.0    5.8
H     2.3   -1.4    8.5
H     2.9    7.4    4.0
I     1.4    6.6    5.8
H     8.2    2.8   -2.3
H     4.4    7.2    3.1
H     6.8   -4.4   -4.0
N     3.5    7.7    3.1
H     3.9    7.5   -3.1
H    -4.5    7.2    3.1
H    -0.7    2.8    8.6
H    -0.1    3.2   -8.5
H     2.3    7.8   -4.0
C     2.9    8.1   -3.1
H     2.3   -8.3   -3.1
C     7.4    4.6   -3.1
H     2.9   -1.8   -8.6
C     7.4   -4.6   -3.1
H     6.8    4.8   -4.0
I     0.8   -7.2   -5.8
H     7.4   -4.0    4.0
P    -5.6    4.0    6.3
P    -5.6    4.0   -6.3
H     7.4    5.2    2.3
H     3.7    0.6    8.6
I     5.3   -7.8   -0.4
C     8.2    3.5    3.1
I     5.9   -3.2   -6.7
I    -1.2   -0.1   -9.4
I    -1.0   -1.0    9.4
I    -3.0    6.0   -6.7
H     8.2    2.8   -4.0
N     7.9   -4.3    3.1
I     1.4    6.6   -6.7
H     4.3    0.2   -8.5
H    -1.5   -4.0   -8.6
H    -5.0    7.5   -3.1
H     8.8    3.2    2.2
H     3.7   -8.6   -2.3
H     2.8   -8.7    3.1
H    -4.6    0.2   -8.5
I    -1.2    9.1    3.1
H     2.3    0.9    9.4
H     8.3   -4.1   -3.1
H    -2.1   -4.4    8.5
H    -6.0    7.4    2.3
I    -7.5   -2.6    5.8
H     2.8    0.5   -9.4
P    -1.1   -9.8   -0.0
H    -9.0    3.2    2.2
I     0.8   -7.2    6.7
P    -5.6   -5.2    6.3
P    -5.6   -5.2   -6.3
N     7.9    4.9    3.1
H     7.4    5.2    4.0
C     2.9   -1.1    9.4
N     3.2   -8.9   -3.1
I    -1.2   -9.3    3.1
I     9.7    2.0   -0.4
N    -5.4    7.7    3.1
N     3.2    0.3    9.4
H     6.8   -6.6   -3.1
H    -2.2    2.6    9.4
N    -1.3    3.1    9.4
H    -1.6    2.9   -9.4
H    -2.1    4.8    8.5
P     7.8   -0.6    6.3
P     7.8   -0.6   -6.3
I    -7.5    6.6    0.4
H    -5.2    0.6    8.6
P   -10.0   -0.6   -0.0
C    -0.7    3.5   -9.4
H     8.8   -3.7    3.1
H     7.3   -6.3    3.1
H    -0.1   -3.7   -9.4
C     3.8   -0.0   -9.4
H    -1.5    5.2   -8.6
N     3.5   -1.5   -9.4
H     3.7   -8.6   -4.0
I    -8.1    2.0   -5.8
H     8.8    3.2    4.0
H     4.3   -9.0    2.2
H    -9.0   -3.7    3.1
I     5.9    6.0    5.8
H     8.3    5.1   -3.1
N     7.6   -6.1   -3.1
H    -0.6   -4.1    9.4
H    -5.2   -8.6   -2.3
H    -9.6    2.8   -2.3
H     3.9   -1.7    9.4
H    -4.6   -9.0    2.2
H    -6.0    7.4    4.0
N    -1.0   -4.3   -9.4
I    -7.5   -2.6   -6.7
I    -3.6   -7.8   -5.8
H    -9.0    3.2    4.0
H    -0.1   -6.0   -8.5
C     3.8    9.2    3.1
I    -9.9   -1.0   -3.1
C     3.8   -9.2    3.1
H    -6.6    7.8   -2.2
C     8.2   -5.7    3.1
N     3.2    9.5   -3.1
C    -6.0    8.1   -3.1
I     3.2    3.6   -9.4
H     4.4   -2.0   -9.4
C    -1.5    4.6    9.4
H     2.8    9.7    3.1
H    -6.0   -1.8   -8.6
C    -1.5   -4.6    9.4
H     8.2   -6.4   -2.3
H     4.3    9.4    2.2
I   -10.2   -0.1    3.1
I    10.3   -2.6    0.4
H    -4.5   -2.0   -9.4
H     2.3   -1.4   10.3
H    -0.7    2.8   10.3
C    -9.6    3.5    3.1
N    -1.0    4.9   -9.4
H    -0.7   -6.4    8.6
H    -4.6    9.4    2.2
I    -8.1    2.0    6.7
C    -5.1   -0.0   -9.4
H    -0.6    5.1    9.4
I    -1.0  -10.2   -3.1
P    -1.1    8.6    6.3
P    -1.1    8.6   -6.3
H     3.7    9.8   -2.3
H     4.3   -9.0    4.0
I     5.9    6.0   -6.7
H    -5.2   -8.6   -4.0
H    -9.6    2.8   -4.0
H    -9.5   -4.1   -3.1
H    -0.1    3.2  -10.3
H     2.3   10.1   -3.1
H    -5.0   -1.7    9.4
H     2.9   -1.8  -10.3
I    -8.1   -7.2   -0.4
H    -6.6   -1.4    8.5
H     8.8    5.5    3.1
H    -4.6   -9.0    4.0
H     8.8   -6.0    2.2
H    -0.1    5.5   -9.4
I    -3.6   -7.8    6.7
H     3.7    0.6   10.3
N    -5.4   -1.5   -9.4
I     3.5    4.5    9.4
C    -5.1    9.2    3.1
H    -9.0    5.5    3.1
H    -6.6    7.8   -4.0
N    -5.7   -8.9   -3.1
C    -5.1   -9.2    3.1
N    -5.7    0.3    9.4
C    -0.7   -5.7   -9.4
H    -9.0   -6.0    2.2
H     2.3  -10.6   -2.2
I     5.3   -7.8   -5.8
H    -6.1   -8.7    3.1
H    -6.6   -8.3   -3.1
N   -10.2    3.1   -3.1
I     3.5   -4.7    9.4
H     8.2   -6.4   -4.0
H    -1.5   -4.0  -10.3
H     4.3    9.4    4.0
C     2.9  -10.3   -3.1
H     4.3    0.2  -10.3
N    -9.9   -4.3    3.1
C    -6.0   -1.1    9.4
H    -4.6    9.4    4.0
H    -6.1    0.5   -9.4
H    -9.5    5.1   -3.1
H     3.7    9.8   -4.0
I    -3.6   10.6   -0.4
I     0.8   11.2   -0.4
H    -4.6    0.2  -10.3
N    -1.3   -6.1    9.4
H    -5.2    9.8   -2.3
H     8.8   -6.0    4.0
H   -10.4   -4.0    2.3
H   -10.5    2.9    3.1
H    -2.1   -4.4   10.3
I     3.2   -5.6   -9.4
H    -1.6   -6.3   -9.4
N    -9.9    4.9    3.1
H    -5.2    0.6   10.3
I     9.7    2.0   -5.8
H    -6.6    0.9    9.4
H    11.2   -1.4   -2.2
H    -9.0   -6.0    4.0
I     5.3   -7.8    6.7
H     2.3  -10.6   -4.0
N    -5.7    9.5   -3.1
H     2.9  -11.0    2.3
I    -5.7    3.6   -9.4
H    -2.1    4.8   10.3
I    -7.5    6.6    5.8
C    -9.6   -5.7    3.1
H    -1.5    5.2  -10.3
P     7.8    8.6   -0.0
H    11.2    0.9   -3.1
P    -1.1   -9.8    6.3
P    -1.1   -9.8   -6.3
N     3.5  -10.7    3.1
H    -2.2   -6.6    9.4
H     2.9    7.4   -8.6
H     6.8   -4.4    8.5
I    -5.4    4.5    9.4
H    -9.6   -6.4   -2.3
H   -11.1    2.6   -3.1
H    -5.2    9.8   -4.0
H     2.3    7.8    8.5
I     7.9    8.2   -3.1
C   -10.4    4.6   -3.1
P   -10.0   -0.6    6.3
P   -10.0   -0.6   -6.3
H   -10.4   -4.0    4.0
C   -10.4   -4.6   -3.1
I     1.4  -11.8    0.4
I     5.3   10.6   -0.4
I    -5.4   -4.7    9.4
H     6.8    2.6    9.4
H   -10.4    5.2    2.3
H    -6.1    9.7    3.1
H     6.8    4.8    8.5
H    -0.1   -6.0  -10.3
H     3.9  -10.9   -3.1
I     9.7    2.0    6.7
H    -6.0   -1.8  -10.3
H     7.4   -4.0   -8.6
H    11.2   -1.4   -4.0
H     2.9  -11.0    4.0
I    -7.5    6.6   -6.7
H   -11.0   -4.4   -2.2
I     9.7   -7.2   -0.4
H    -0.7   -6.4   10.3
I    10.3   -2.6    5.8
I     7.7   -0.1   -9.4
H    11.7    0.5    3.1
H    11.8   -1.8    2.3
H     8.2    2.8    8.6
H    -9.6   -6.4   -4.0
H   -11.0    4.8   -2.2
H     7.3    2.9   -9.4
N   -10.2   -6.1   -3.1
C    11.8   -1.1   -3.1
I     7.7    9.1    3.1
I    10.3    6.6    0.4
I    -8.1   -7.2   -5.8
H    -0.7   12.0   -2.3
H    -6.6   -1.4   10.3
I     0.8    2.0   12.1
H   -10.4    5.2    4.0
I     7.9   -1.0    9.4
C    -6.0  -10.3   -3.1
I    -5.7   -5.6   -9.4
I   -11.9   -3.2    0.4
H    -5.0  -10.9   -3.1
H    -2.2   11.8   -3.1
N    -5.4  -10.7    3.1
H     4.4  -11.2    3.1
H    -6.6   10.1   -3.1
I     1.4   -2.6  -12.1
H     7.4    5.2   -8.6
I     7.7   -9.3    3.1
N    12.1    0.3   -3.1
P     7.8   -9.8   -0.0
H    -4.5  -11.2    3.1
N     7.6    3.1    9.4
I    -1.0    8.2    9.4
H   -11.0   -4.4   -4.0
I    10.3   -2.6   -6.7
H    11.8   -1.8    4.0
P    -1.1   -0.6   12.6
P    -1.1   -0.6  -12.6
H     4.4    7.2   -9.4
H    -0.1   12.4    2.2
I   -12.6    1.4   -0.4
H    -6.6  -10.6   -2.2
