         400
 sphere cut out from bulk 
I    -1.7   -0.1   -0.1
H     1.8   -0.5   -0.8
H     2.0    1.2   -0.9
N     2.5    0.3   -0.8
H     2.5    0.3    1.4
H    -1.4   -2.2   -1.8
C     3.2    0.2    0.5
H     3.1    0.2   -1.6
H    -1.8    2.3    2.2
P    -1.7   -1.8    2.6
P    -1.8    1.9   -2.6
I     0.8    3.3   -1.5
H     3.8   -0.7    0.6
I     0.9   -0.4    3.8
N    -1.1   -3.2   -2.0
H    -1.0   -3.7   -1.1
H    -0.2   -3.2   -2.5
I     0.1   -0.3   -4.1
H     3.9    1.1    0.6
I     0.1   -4.0    1.2
C    -2.1    3.4    2.4
H    -2.2    3.9    1.4
H    -0.1    4.0    2.7
I     2.6   -3.6   -2.6
H    -5.0    1.1    0.6
I     2.6    3.7    2.7
N    -1.1    4.0    3.2
H    -5.2   -0.7    0.6
C    -2.2   -3.9   -2.9
H    -3.0    3.4    2.9
H     2.0   -2.6    4.4
I    -3.6    0.2    4.1
H    -3.1   -3.9   -2.3
H    -0.9    3.5    4.1
I    -3.7    4.0   -1.2
H    -2.3   -3.3   -3.8
I    -4.4    0.3   -3.7
I    -4.4   -3.4    1.6
C    -5.7    0.2    0.5
I     4.5    0.3   -3.7
I     4.6   -3.4    1.6
H    -5.8    0.2   -1.6
H     3.2   -3.5    3.7
H    -1.8   -4.9   -3.1
H     2.4    4.0   -3.9
P     2.8    5.5   -0.0
P     2.7   -5.5   -0.0
P     2.7   -1.8   -5.3
H    -1.3    5.0    3.4
P     2.8    1.8    5.3
N     2.6   -3.5    4.5
H     1.9   -4.2    4.4
H    -1.1    0.0   -6.4
N    -6.5    0.3   -0.8
H    -6.5    0.3    1.4
H     3.7    3.0   -4.7
I    -1.7   -3.8    5.2
I    -1.8    3.6   -5.3
I     5.3    4.0   -1.2
I     5.3    0.2    4.1
C     3.2    3.9   -4.7
H    -1.3   -6.0    3.4
H    -2.1    0.2    6.7
H    -1.8    6.1   -3.1
I     0.1    7.0    1.2
H     1.7    3.2   -6.1
H    -7.0    1.2   -0.9
I     0.2    3.2    6.4
H    -7.2   -0.5   -0.8
I     7.2   -0.1   -0.1
H    -1.4    1.5   -7.1
H     5.9   -3.9   -2.3
N    -1.2    0.5   -7.3
H     5.9    3.4    2.9
H    -1.0    7.3   -1.1
H    -0.1   -6.9    2.7
C     3.3   -3.5    5.8
H    -2.2   -7.1    1.4
H     4.0   -2.7    5.8
N     2.4    4.0   -6.0
H    -5.3    3.0   -4.7
H    -5.7   -3.5    3.7
H     3.9    4.8   -4.7
N    -1.1   -7.0    3.2
H    -1.7   -1.4    7.4
I    -6.3    3.7    2.7
I    -6.4   -3.6   -2.6
H    -0.3    0.5   -7.8
I     0.8   -3.9   -6.7
I     0.8   -7.7   -1.5
P     7.2    1.9   -2.6
H     7.2    2.3    2.2
H     2.6   -3.4    6.6
C    -2.0   -0.4    7.6
P     7.2   -1.8    2.6
C    -2.2    7.1   -2.9
H     6.8    3.9    1.4
H    -0.1    0.3    8.0
C     6.9    3.4    2.4
I    -3.7   -7.0   -1.2
H     1.9    4.9   -6.1
H    -3.1    7.1   -2.3
N    -1.1    7.8   -2.0
H    -5.0   -2.7    5.8
H     7.6   -2.2   -1.8
I    -3.8   -3.3   -6.4
H    -0.2    7.8   -2.5
I     2.6   -7.3    2.7
I     2.5    0.1   -7.8
I     2.6    7.4   -2.6
H    -3.2   -0.2   -7.6
C    -2.1   -7.6    2.4
P    -6.1    1.8    5.3
H     1.9    6.8    4.4
P    -6.2    5.5   -0.0
H     3.8   -4.5    5.9
P    -6.2   -5.5   -0.0
H     2.4   -7.0   -3.9
C     6.8   -3.9   -2.9
I     2.7   -0.1    7.9
P    -6.3   -1.8   -5.3
H     6.7   -3.3   -3.8
H    -5.1    4.8   -4.7
C    -2.2   -0.2   -8.1
H     3.1    3.9   -6.8
C    -5.8    3.9   -4.7
N    -1.0    0.3    8.5
H    -0.9   -7.4    4.1
N    -6.4   -3.5    4.5
H    -6.9   -2.6    4.4
H    -6.5    4.0   -3.9
H    -1.9   -1.2   -8.3
H     3.8   -6.2   -4.7
H    -3.0   -7.6    2.9
H    -3.0   -0.4    8.2
N     7.8   -3.2   -2.0
C    -5.7   -3.5    5.8
H     1.9   -6.1   -6.1
H    -2.2    7.7   -3.8
I     5.3   -7.0   -1.2
H    -1.2    1.3    8.7
H     8.0   -3.7   -1.1
I    -4.3    7.6    1.6
I     5.2   -3.3   -6.4
I    -8.1    3.3   -1.5
I    -8.1   -0.4    3.8
H     3.2    7.5    3.7
I    -4.3    3.8    6.8
H    -5.1   -4.5    5.9
I    -1.6    7.1    5.2
I     4.6    7.6    1.6
H    -1.4    8.7   -1.8
C     3.1   -7.0   -4.7
H    -1.8   -8.6    2.2
N     2.6    7.5    4.5
I     4.7    3.8    6.8
H     7.1   -4.9   -3.1
I    -1.8   -7.4   -5.3
H    -5.1   -6.2   -4.7
H    -7.1   -4.2    4.4
H    -2.3    0.4   -9.1
H    -0.8   -0.2    9.4
N     7.9    4.0    3.2
H     5.9    7.1   -2.3
N     2.4   -7.0   -6.0
H     5.8   -0.2   -7.6
H     3.8    6.5    5.9
H     6.8    0.2    6.7
I     7.2    3.6   -5.3
P    -1.8   -9.1   -2.6
H     8.8   -3.2   -2.5
P    -1.7    9.1    2.6
P    -1.9   -5.4   -7.9
H     8.0    3.5    4.1
H     2.0    8.4    4.4
P    -1.7    5.4    7.9
N    -6.5    4.0   -6.0
I     7.3   -3.8    5.2
I    -8.8   -4.0    1.2
H     7.7    5.0    3.4
I     0.8    7.1   -6.7
I    -8.9   -0.3   -4.1
P    -1.7   -5.6    7.9
H    -6.4   -3.4    6.6
H    -5.9    3.9   -6.8
P    -1.9    5.6   -7.9
H     7.1    6.1   -3.1
H     6.8   -7.1    1.4
I     9.0   -0.3   -4.1
H     3.7   -8.0   -4.7
I     0.0    3.4   -9.3
I     1.0   -4.1    9.0
H    -7.2    3.2   -6.1
H     2.4   -3.2   -9.2
I     9.1   -4.0    1.2
H     1.7   -7.8   -6.1
C     3.3    7.5    5.8
H    -9.2   -3.2   -2.5
H     2.0   -9.8   -0.9
I    -6.3   -7.3    2.7
I     0.2   -7.7    6.4
H     5.9   -7.6    2.9
H     8.8    4.0    2.7
I    -6.3   -0.1    7.9
I    -6.4    7.4   -2.6
H    -5.7    7.5    3.7
H     6.0   -0.4    8.2
H    -5.1    6.5    5.9
H     7.9    0.0   -6.4
I    -6.5    0.1   -7.8
H     3.3    3.7    8.9
C     6.8    7.1   -2.9
C    -5.8   -7.0   -4.7
H     3.1   -7.0   -6.8
H     7.6   -6.0    3.4
H    -6.5   -7.0   -3.9
C     6.9   -0.4    7.6
H     1.9    3.0    9.7
H    -9.1    4.0    2.7
H     2.6    7.6    6.6
H     7.5    1.5   -7.1
I     9.8    3.3   -1.5
H     7.3   -1.4    7.4
C     6.9   -7.6    2.4
H    -7.1    4.9   -6.1
C     6.7   -0.2   -8.1
I     9.9   -0.4    3.8
I    -3.6   -3.5    9.4
H    -5.3   -8.0   -4.7
N     7.8    0.5   -7.3
H     1.8   10.5   -0.8
H    -9.9   -3.7   -1.1
I   -10.7   -0.1   -0.1
H     3.9   -9.9    0.6
I    -3.8    7.7   -6.4
H    -7.1    6.8    4.4
H   -10.3   -2.2   -1.8
I     4.5    4.0   -8.9
I    -4.5    4.0   -8.9
N   -10.1   -3.2   -2.0
I    -4.3   -7.1    6.8
N     2.6    3.8    9.8
H    10.8   -0.5   -0.8
N    -6.4    7.5    4.5
H     8.0    7.3   -1.1
H     6.7    7.7   -3.8
H     4.0    8.3    5.8
H     3.8   -2.5   -9.9
H     2.1    4.7    9.6
I     4.7   -7.1    6.8
H     3.8   10.3    0.6
P     2.7    9.2   -5.3
C     3.1   -3.3  -10.0
P     2.8   -9.2    5.3
H     7.0   -1.2   -8.3
I    -1.7   10.9   -0.1
N     7.9   -7.0    3.2
P     2.6    2.0  -10.5
N     2.5  -10.7   -0.8
C    -5.7    7.5    5.8
H    10.9    1.2   -0.9
H     2.5  -10.7    1.4
P     2.9   -2.0   10.5
I    -1.6    3.4   10.4
H    -5.0   -9.9    0.6
H    -7.1   -6.1   -6.1
P   -10.7   -1.8    2.6
H   -10.7    2.3    2.2
N     7.8    7.8   -2.0
P   -10.8    1.9   -2.6
I    -1.7  -11.1   -0.1
H    -5.7    3.7    8.9
C     3.2  -10.8    0.5
H     6.6    0.4   -9.1
N   -10.0    4.0    3.2
I    -8.1   -7.7   -1.5
H    -9.9    3.5    4.1
I     5.2    7.7   -6.4
I     0.9   10.6    3.8
I    -8.8    7.0    1.2
H    -5.0    8.3    5.8
N    -6.5   -7.0   -6.0
I    -8.2   -3.9   -6.7
H     3.1  -10.8   -1.6
I    -8.8    3.2    6.4
I    -1.9   -3.6  -10.6
I     5.4   -3.5    9.4
H     3.6   -4.3   -9.9
I     1.0    6.9    9.0
H    -5.9   -7.0   -6.8
H     7.2   -8.6    2.2
I     0.1   10.7   -4.1
I     7.3    7.1    5.2
N    11.4    0.3   -0.8
H    -5.2   -2.5   -9.9
H    -5.2   10.3    0.6
I     9.1    7.0    1.2
H    11.5    0.3    1.4
N     2.5   11.3   -0.8
H     8.8   -6.9    2.7
I     7.2   -7.4   -5.3
N     8.0    0.3    8.5
H     2.5   11.3    1.4
H     1.8  -11.5   -0.8
I     9.2    3.2    6.4
H     8.7    0.5   -7.8
C     3.2   11.2    0.5
H     7.7    1.3    8.7
I     0.3   -0.5   11.7
H     2.1   -6.3    9.6
H     8.0   -7.4    4.1
H     7.6    8.7   -1.8
H     3.2   11.2   -1.6
H    -6.6   -3.2   -9.2
H    -6.9    8.4    4.4
H    -9.1   -6.9    2.7
H     1.8   -2.4  -11.4
C   -11.1    3.4    2.4
P     7.2   -9.1   -2.6
P     7.1   -5.4   -7.9
H   -10.0    0.0   -6.4
H   -11.1    3.9    1.4
H    -6.4    7.6    6.6
H   -10.3    5.0    3.4
H    -1.5   -9.5   -7.1
P     7.2    9.1    2.6
N     2.3   -3.3  -11.3
H     8.9    0.3    8.0
H     3.3   -7.2    8.9
H     8.8    7.8   -2.5
P     7.1    5.6   -7.9
I     0.1  -11.3   -4.1
I     0.7   -0.2  -12.0
I    -0.0   -7.5   -9.3
I     0.9  -11.4    3.8
H    -5.3   -4.3   -9.9
C    -5.9   -3.3  -10.0
P     7.3    5.4    7.9
H    -9.0    0.3    8.0
I    -3.6  -10.8    4.1
H    -9.2    0.5   -7.8
H    -7.0   -9.8   -0.9
H     3.9    2.8   11.1
P     7.3   -5.6    7.9
H    11.0   -2.6    4.4
I    -4.4  -10.7   -3.7
C   -11.1   -3.9   -2.9
C     3.4    3.8   11.1
I     4.5   -7.0   -8.9
I     4.5  -10.7   -3.7
H     1.7   -4.0  -11.4
I    -4.5   -7.0   -8.9
C    12.2    0.2    0.5
H    12.1    0.2   -1.6
C    -5.7  -10.8    0.5
H    -7.2   -7.8   -6.1
N    -6.3    3.8    9.8
H     2.4    7.8   -9.2
H    -1.7    9.6    7.4
H   -10.8   -4.9   -3.1
P    -6.2   -9.2    5.3
H    -9.2    7.8   -2.5
H    -1.1    3.7  -11.6
I    -3.8    0.4  -11.7
P    -6.1   -2.0   10.5
H   -11.2   -3.3   -3.8
H     3.7  -11.7    0.6
H    -7.0    3.0    9.7
P    -6.3    9.2   -5.3
I    11.5   -3.6   -2.6
H    -5.8  -10.8   -1.6
H     2.0   12.2   -0.9
H    -9.9    7.3   -1.1
H   -10.3   -6.0    3.4
N     2.6   -7.2    9.8
H     8.1   -0.2    9.4
I   -10.6   -3.8    5.2
P    -6.3    2.0  -10.5
H    10.8   -4.2    4.4
I    11.6    3.7    2.7
I     9.7   -3.9   -6.7
I    -3.6   11.2    4.1
I    -3.6    7.5    9.4
I     9.8   -7.7   -1.5
H     3.6    6.7   -9.9
N   -10.2    0.5   -7.3
I   -10.7    3.6   -5.3
H    -5.1    2.8   11.1
N    -6.5  -10.7   -0.8
H    -6.5  -10.7    1.4
C    -5.7   11.2    0.5
N   -10.0   -7.0    3.2
H    -2.0   -3.5   11.9
H     4.1    4.6   11.1
I    -4.4   11.3   -3.7
H     1.9   -8.0    9.7
H   -10.4    1.5   -7.1
H     3.9   12.0    0.6
I     5.3  -10.8    4.1
H    11.4    4.0   -3.9
