         400
 sphere cut out from bulk 
P     0.5    0.1    1.2
I    -0.6   -2.1   -0.7
I    -0.9    2.2   -0.8
P     0.5   -0.1   -3.0
I     2.9    0.3   -0.9
I    -1.9   -0.1    3.3
I     1.9   -2.0    3.2
H     0.3    4.2    0.3
H    -3.2   -2.8    0.4
I     1.7    2.3    3.3
H     0.1   -4.4   -0.2
H    -3.3    2.6   -1.6
H     1.2    4.1    1.7
H    -4.5   -1.6    0.5
H    -3.6   -1.9    2.7
N     0.8    4.8    0.9
C    -4.2   -2.6    0.8
H     4.9   -1.6    0.5
H     1.2   -4.7    2.0
H     4.6    2.1   -1.6
I    -1.8    0.0   -5.0
N     0.4   -5.4    0.2
N    -4.2    2.8   -2.0
N    -4.2   -2.6    2.3
H    -0.6   -5.1    2.0
H     1.6    5.2    0.4
P     0.5   -0.2    5.5
H    -4.9    2.1   -1.6
H     4.3   -2.4    2.7
H     4.5   -3.3    0.4
C     0.4   -5.4    1.7
H    -4.0    1.7   -3.7
H    -0.9    5.3    2.1
H     1.3   -5.6   -0.2
I     1.7    2.2   -5.1
I     1.8   -2.0   -5.1
C     5.2   -2.6    0.8
H    -3.9   -3.5    2.6
H    -5.0   -3.3    0.4
C    -0.1    5.8    1.6
C    -4.2    2.7   -3.4
H    -0.3   -6.1   -0.2
H    -4.6    3.7   -1.7
H    -3.4    3.4   -3.8
N     5.2    2.8   -2.0
N     5.2   -2.6    2.3
H    -5.2   -2.4    2.7
H     4.9    3.7   -1.7
H    -3.7    1.9    4.8
H     4.3    3.0   -3.8
H    -0.4    6.5    0.8
I    -6.5    0.3   -0.9
H     3.6    3.1    4.6
H     5.9   -1.9    2.7
H     0.6   -6.4    2.0
H     0.5    6.3    2.3
H     6.2   -2.8    0.4
H     5.5    1.7   -3.7
C     5.3    2.7   -3.4
H     6.2    2.6   -1.6
H     5.5   -3.5    2.6
I     3.8    5.9   -0.8
H    -5.2    3.0   -3.8
P     0.6    0.1   -7.2
I     3.7   -6.1   -0.7
C    -4.1    2.4    5.7
I    -3.2   -5.8    3.3
H    -3.2    2.9    6.2
H    -4.5    4.2    4.5
N     4.5    3.5    5.2
H    -3.8   -1.4   -6.6
H     5.7    1.9    4.8
H     0.9   -4.5   -6.3
I    -0.8    2.1    7.5
I    -3.4    6.2    3.5
H     6.0    3.4   -3.8
H     5.0    4.2    4.5
H     3.8   -2.9   -6.3
H    -0.8    4.9   -6.2
N    -5.0    3.5    5.2
I    -0.7   -2.2    7.7
H     1.4    4.1   -6.8
I     2.9    0.1    7.5
H    -5.8    3.1    4.6
H    -4.6    1.8    6.4
H    -0.6   -5.4   -6.0
C     5.4    2.4    5.7
H     4.8    1.8    6.4
I    -1.9   -7.9   -0.7
I     7.5   -0.1    3.3
I    -5.7    5.9   -0.8
H     4.1    4.1    5.9
H    -4.2   -3.8   -6.1
I    -5.7   -6.1   -0.7
C     0.1   -5.1   -6.8
I    -7.6   -2.0    3.2
I    -3.2   -6.0   -5.1
I    -3.3    6.1   -4.9
H     0.4    6.1   -5.9
C    -4.0   -2.1   -7.3
I    -2.2    8.3   -0.7
H    -3.0   -2.5   -7.7
H    -0.4   -4.4   -7.5
C    -0.1    5.5   -6.7
H     5.6   -1.4   -6.6
I    -7.8    2.3    3.3
N     0.9    4.7   -7.4
N     4.7   -3.3   -6.8
I     8.6    2.2   -0.8
N    -4.7   -3.3   -6.8
H    -5.6   -2.9   -6.3
H     5.3   -3.8   -6.1
H    -5.4    4.1    5.9
P    -8.9    0.1    1.2
I     2.7   -8.1    3.3
I     7.6    0.0   -5.0
H     0.4    4.1   -8.1
I     6.2   -5.8    3.3
I     8.9   -2.1   -0.7
I     2.4    8.2    3.3
H     6.2    2.9    6.2
I     6.1    6.2    3.5
P    -4.4   -8.1    1.3
H    -8.2    4.1    1.7
I    -0.6   -2.1   -9.1
P    -8.9   -0.1   -3.0
C     5.5   -2.1   -7.3
I    -7.6   -2.0   -5.1
H    -7.8    5.2    0.4
P    -4.6    8.1    1.3
H    -4.6   -1.7   -8.1
I    -7.7    2.2   -5.1
I    -0.7    2.1   -9.3
H     0.3    4.0    8.6
H     4.4   -3.9   -7.5
P    -4.4   -8.0   -2.9
P     4.9    8.1    1.3
H     4.9   -1.7   -8.1
P     0.4    0.0    9.6
H     1.6    5.2   -7.9
P     5.1   -8.1    1.3
H    -0.6    6.2   -7.4
H    -8.3   -4.7    2.0
H     1.2   -6.8   -6.8
I     3.0    0.1   -9.3
N     0.7   -6.2   -7.5
H    -0.2   -9.8    0.8
H    -8.1   -5.6   -0.2
H    -5.0   -3.9   -7.5
P    -4.6    8.3   -2.9
N    -8.6    4.8    0.9
H    -3.2   -2.5    9.0
P     5.1   -8.0   -2.9
I     6.1    6.1   -4.9
I     2.4    8.1   -5.2
H    -4.7   -1.7    8.6
I    -6.6    0.1    7.5
I     6.2   -6.0   -5.1
H     4.7   -1.7    8.6
P     9.9    0.1    1.2
P     4.8    8.3   -2.9
I     2.6   -8.2   -5.2
H    -9.2    4.2    0.3
H     0.4    9.9    2.0
H     1.4   -5.9   -8.2
H    -0.5   10.2   -0.2
H     8.5    5.3    2.1
I   -10.0   -2.1   -0.7
H     0.8  -10.0    2.3
I     3.6    6.0    7.5
H     6.4   -2.5   -7.7
H    -9.3   -4.4   -0.2
H     1.5    5.2    8.8
H    -0.6   -4.5    9.3
H     8.8   -5.1    2.0
P    10.0   -0.1   -3.0
N     0.8    4.6    9.3
H    -0.0   -6.7   -8.0
P    -4.4   -7.8    5.5
P    -9.0   -0.2    5.5
C    -4.1   -2.2    9.4
I     3.8   -6.0    7.8
H     9.5   -4.4   -0.2
N    -9.1   -5.4    0.2
H     1.3   -6.0    8.6
I   -10.3    2.2   -0.8
H     9.7    4.2    0.3
C     0.2  -10.5    1.6
C    -9.0   -5.4    1.7
H     1.1   10.7   -0.2
I     3.5   10.2   -0.7
P     5.1   -7.8    5.5
H     1.3    4.0   10.0
N     0.1   10.9    0.2
I     7.5   -7.9   -0.7
H     4.3   -4.0    9.3
H     9.2   -6.1   -0.2
I    -6.8   -8.1    3.3
C     0.2   10.9    1.7
H    -3.9   -1.4   10.2
C     5.3   -2.2    9.4
H    -0.2   -6.8    8.8
H    -8.8   -6.4    2.0
P    -4.6    8.5    5.5
I     7.3    8.3   -0.7
I     4.0  -10.3   -0.8
C     9.4    5.8    1.6
H     9.0    6.5    0.8
I    -3.2  -10.1    3.5
H    -8.9    6.3    2.3
P     4.8    8.5    5.5
N     9.8   -5.4    0.2
H    -0.7    6.1    9.4
N     0.6   -6.3    9.3
H    -0.7  -11.0    2.1
H     1.8  -11.1    0.4
C    -9.5    5.8    1.6
C    -0.0   -5.1   10.0
H    -8.1    4.1   -6.8
H     6.3   -2.5    9.0
I    -5.9    6.0    7.5
I    -7.0    8.2    3.3
I    -6.5    0.1   -9.3
P     9.9   -0.2    5.5
H    -5.1   -4.0    9.3
C     9.8   -5.4    1.7
I    -5.7   -6.0    7.8
P     0.6   -0.1  -11.3
N    10.3    4.8    0.9
I    -2.0   -8.1    7.7
P    -8.9    0.1   -7.2
H   -10.0   -5.1    2.0
H    -0.8   11.2    2.0
H     0.8   -4.5   10.5
H    -3.1    3.0  -10.6
I    -3.4   10.4    3.3
C    -0.2    5.5   10.1
I     3.9   -5.9   -9.0
H    -9.7   -6.1   -0.2
I    -2.2    8.2    7.7
N     4.6   -3.3   10.0
H    -4.5    1.9  -10.4
H    -8.5   -4.5   -6.3
H    10.6    4.1    1.7
H     3.7   -3.0   10.5
N     1.0  -11.5    0.9
N    -4.9   -3.3   10.0
P    -4.5    8.0   -7.1
H    -0.9    4.8   10.5
I     8.7    2.1    7.5
I     3.7    6.1   -9.3
H     0.9    9.4   -6.8
H     4.9    1.9  -10.4
P    -4.3   -8.3   -7.1
H     8.6    4.9   -6.2
I    -5.4  -10.3   -0.8
H     5.5   -1.4   10.2
I    -3.1  -10.2   -4.9
H    10.6   -4.7    2.0
P     4.9    8.0   -7.1
H   -10.3    5.3    2.1
I    11.1    2.3    3.3
H     0.7  -10.2   -5.9
I     8.7   -2.2    7.7
H     0.9   11.6    2.0
I    -6.0   10.2   -0.7
H    -9.9    6.5    0.8
H    -0.1   11.8   -0.2
I   -11.4   -0.1    3.3
I    -6.8   -8.2   -5.2
I    -2.0   -0.0   11.7
I    11.3   -2.0    3.2
I     1.7   -2.1   11.6
I    -7.1    8.1   -5.2
I     1.6    2.1   11.7
H     8.9   -5.4   -6.0
I    -3.5   10.3   -5.1
H    10.0    6.3    2.3
P     5.2   -8.3   -7.1
C    -4.0    2.5  -11.1
H    10.0   -6.4    2.0
H     0.5  -12.1    0.3
I    -5.5   -5.9   -9.0
H    -0.7   -5.5   10.8
H    10.8   -5.6   -0.2
H    -4.3   -3.9   10.7
H     1.0   -6.9   10.0
H    11.1    5.2    0.4
I    -1.9   -8.0   -9.0
N    -8.5    4.7   -7.4
P    10.0    0.1   -7.2
H    -7.8    5.2   -7.9
H    -5.7   -3.0   10.5
H     1.4  -12.1    1.7
H     4.2    4.1  -10.8
I   -11.3    0.0   -5.0
I    12.4    0.3   -0.9
H    -9.0    6.1   -5.9
H    -0.8   10.8   -6.0
I     6.3  -10.1    3.5
H     0.3    6.0   10.8
I    -2.1    8.2   -9.0
I    11.2    2.2   -5.1
I     6.0   10.4    3.3
H     5.2   -3.9   10.7
H    -0.3    9.6   -8.0
I    -5.8    6.1   -9.3
H     9.0   -4.4   -7.5
H    -0.3  -10.1   -7.4
I    11.3   -2.0   -5.1
N     0.5   10.1   -7.5
C    -9.3   -5.1   -6.8
H    -3.6    1.9  -12.0
C     5.5    2.5  -11.1
C     0.1  -10.8   -6.7
H     6.3    3.0  -10.6
H    -8.3   -6.8   -6.8
H    -5.2    4.1  -10.8
C     9.5   -5.1   -6.8
C     9.3    5.5   -6.7
H    -9.0    4.1   -8.1
I   -10.2    2.1    7.5
H   -10.0   -5.4   -6.0
H    -8.0   -5.9   -8.2
I     8.8   -2.1   -9.1
I   -10.1   -2.2    7.7
C    -9.5    5.5   -6.7
H    10.4   -4.5   -6.3
H    -0.4    9.5    8.8
I     8.8    2.1   -9.3
I     6.3  -10.2   -4.9
H    -7.9    5.2    8.8
H   -10.3    4.9   -6.2
I     6.0   10.3   -5.1
N     4.6    3.6  -11.6
H   -12.7   -2.8    0.4
H    -0.6  -11.4   -6.2
H     9.9    6.1   -5.9
H   -12.7    2.6   -1.6
N    -8.7   -6.2   -7.5
N    -4.9    3.6  -11.6
H     3.8    3.2  -12.1
C    -0.1   11.2   -6.8
H     8.9    6.2   -7.4
H    -9.9   -4.4   -7.5
P    -9.0    0.0    9.6
H    -9.1    4.0    8.6
H    -8.1   -6.0    8.6
H     1.2   10.4   -8.2
I     3.8  -10.2    7.5
P    -4.6    8.0    9.7
H    -4.3  -12.5   -1.7
I     3.6   10.3    7.8
H    10.8    4.1   -6.8
H     0.7   11.8   -6.3
I     7.2    8.2    7.7
H    -8.7  -10.0    2.3
H     9.9    4.1   -8.1
H   -13.0   -1.9    2.7
H    -7.6  -11.1    0.4
P     4.8    8.0    9.7
I     7.5   -8.1    7.7
H     5.8    1.9  -12.0
H     1.1   10.3    8.6
H     9.2   -9.8    0.8
P    -4.4   -8.3    9.7
H     8.9   10.2   -0.2
H    -8.2    4.0   10.0
N    -8.7    4.6    9.3
H    -8.3   10.7   -0.2
I    -1.8   -0.1  -13.4
I    -3.3   -6.0   11.7
H    -9.1    9.9    2.0
N    10.3    4.7   -7.4
H    -4.2  -12.1    4.5
H     9.7    4.0    8.6
H     8.9   -4.5    9.3
H     4.2   13.0    0.4
H     5.1  -12.5   -1.7
H    -4.1   12.8    2.6
N     0.3   10.0    9.3
H    -4.4    4.2  -12.3
H     0.8    9.4   10.0
I   -10.0   -2.1   -9.1
H     1.9  -11.0   -7.9
P     5.0   -8.3    9.7
H    -9.6   -9.8    0.8
I    -3.5    6.0   11.9
H    -4.1    1.6   13.1
H    -5.7    3.2  -12.1
I     1.8    2.3  -13.5
P     9.9    0.0    9.6
H    -0.5  -10.1    9.4
P     0.4   -0.1   13.8
N     1.1  -11.6   -7.4
H   -12.9    3.4   -3.8
H    -3.2  -12.9   -3.8
H    -3.5    3.3   13.0
I     2.0   -1.9  -13.6
I   -10.1    2.1   -9.3
