         400
 sphere cut out from bulk 
H     0.5   -1.3    0.1
I    -0.2    1.6    0.8
C     1.1   -1.7   -0.7
H     1.5   -0.9   -1.3
H     0.5   -2.3   -1.4
P    -2.7    0.0    1.9
N     2.2   -2.6   -0.2
H    -1.9    1.2   -2.6
I    -2.8   -1.9   -0.6
H     2.8   -2.0    0.5
H     1.8   -3.4    0.4
H     1.6    1.1    3.3
P     1.7    3.6   -0.7
I    -0.9   -2.2    3.3
H    -3.4    1.5   -1.9
H     2.8   -3.0   -0.9
I     1.6    2.0   -3.4
N    -2.9    1.3   -2.8
H    -3.3    0.5   -3.2
I     4.3    2.1    0.3
C     1.9    1.8    4.1
I    -0.1   -2.2   -4.3
I     3.6   -1.5    3.0
H     1.7    2.8    3.8
I    -4.6    2.1    0.3
H    -0.0    1.7    5.1
H    -3.0    4.0    2.0
H    -2.7    3.4   -3.2
H    -2.5   -4.1    2.5
C    -3.1    2.5   -3.7
H     2.9    1.7    4.4
H    -2.0    5.1    1.0
I    -2.6    1.9    4.6
P    -2.7   -3.7   -3.2
N     1.0    1.5    5.3
I    -0.9    5.3   -1.7
H    -1.5    4.8    2.7
C    -2.3    4.9    2.0
H    -2.6    2.3   -4.6
H     1.1    0.6    5.7
H     5.5    1.5   -1.9
I    -0.8   -5.8   -1.7
P     1.7   -0.0   -5.8
I     1.9   -5.5    1.9
P     1.7   -3.7    4.6
I     1.8    5.6    1.9
H    -4.2    2.6   -3.9
I    -5.3   -1.5    3.0
H    -1.9   -6.0    1.0
N    -3.1   -5.0    2.5
I     6.1   -1.9   -0.6
H     5.6    0.5   -3.2
P     6.2    0.0    1.9
H    -6.1   -2.0    0.5
H    -3.9   -4.8    1.9
H     1.2    4.2   -4.8
H    -2.7   -1.4    5.8
H     1.3    2.2    6.1
H     4.7    2.6   -3.9
I    -4.4   -1.4   -4.7
I     4.5   -1.4   -4.7
I     3.5   -5.2   -2.3
N     6.0    1.3   -2.8
C    -2.2   -6.2    2.0
H    -6.1   -3.0   -0.9
H     1.4   -5.2   -4.4
H    -1.4   -6.3    2.7
H    -3.4   -5.2    3.4
N    -6.7   -2.6   -0.2
I     3.5    5.9   -2.3
H     5.0   -4.8    1.9
N    -3.1    6.1    2.5
C     5.8    2.5   -3.7
I    -0.9    1.4   -7.1
I     1.5   -1.7    7.1
N     1.1    5.2   -5.1
H     5.9    4.0    2.0
H     1.3    5.9   -4.4
H    -7.4   -0.9   -1.3
H     7.0    1.2   -2.6
C    -3.2   -1.2    6.7
H     0.1    5.3   -5.4
H    -4.0    6.2    1.9
H    -6.0    1.7    4.4
P     1.8   -7.4   -0.7
H    -3.5    5.9    3.4
H    -2.8   -0.3    7.2
H     6.2    3.4   -3.2
H    -2.6    6.9    2.5
I    -5.4   -5.2   -2.3
H     0.1   -5.7   -5.4
H    -7.1   -3.4    0.4
N     1.2   -5.8   -5.1
H    -2.9   -7.1    2.0
H     1.7    7.7    0.4
H    -4.3   -1.1    6.6
H    -3.3   -1.5   -7.0
P     6.2   -3.7   -3.2
I     6.3    1.9    4.6
C    -7.8   -1.7   -0.7
I    -0.2    5.2    6.1
H     6.4   -4.1    2.5
N     5.8   -5.0    2.5
H    -7.3    1.1    3.3
H     4.6   -1.1    6.6
P    -7.2    3.6   -0.7
H     6.3    2.3   -4.6
H     4.9    6.2    1.9
H     5.5   -5.2    3.4
H    -2.4   -0.5   -7.9
H     1.8   -4.6   -6.7
I    -7.3    2.0   -3.4
H    -1.3   -2.6   -7.8
I    -5.4    5.9   -2.3
C    -7.0    1.8    4.1
H     1.3   -6.8   -4.8
C     6.6    4.9    2.0
I    -0.1   -5.8    6.1
I    -2.5   -5.5   -5.9
I    -2.6    5.5   -5.9
H    -2.0   -2.5    7.9
H    -8.4   -1.3    0.1
P    -2.8    7.4   -3.2
I     3.6    2.1   -7.4
H     2.7    8.1   -0.9
N    -3.0   -2.3    7.7
P    -2.8    3.7    7.2
C     1.9    5.5   -6.3
H     3.0    5.3   -6.1
H    -7.2    2.8    3.8
H    -3.4   -3.2    7.2
N    -3.0   -1.3   -8.0
H     6.2   -1.4    5.8
H     6.9    5.1    1.0
C     2.0   -5.6   -6.3
H     5.4    5.9    3.4
N     5.8    6.1    2.5
H     1.7    4.7   -7.1
N     2.1    8.5   -0.2
H    -2.6   -7.7   -3.2
I     4.4   -5.1    5.7
H     0.4    8.7   -1.4
P     1.6    7.4    4.6
H    -8.4   -2.3   -1.4
I    -4.5   -5.1    5.7
I     8.7    1.6    0.8
H     3.1   -5.7   -6.1
C     5.7   -1.2    6.7
I     8.0   -2.2    3.3
I    -1.0    1.6    8.7
I     2.0   -1.8   -8.5
H     5.6   -1.5   -7.0
C    -2.2   -2.5   -8.5
I    -7.0   -5.5    1.9
I     3.4    2.2    8.2
I    -7.1    5.6    1.9
H     7.4    4.8    2.7
H     1.8   -8.2    3.8
H     7.0   -6.0    1.0
P    -7.2   -0.0   -5.8
I    -9.1    1.6    0.8
C     6.7   -6.2    2.0
I     4.3    6.0    5.7
P    -7.2   -3.7    4.6
I    -5.3    2.1   -7.4
C     1.0    9.3   -0.7
H     2.7    9.0    0.5
H    -3.8   -1.2   -8.6
I    -4.6    6.0    5.7
I    -1.0    8.8    3.3
H     6.1   -0.3    7.2
H     1.8    6.5   -6.7
H     6.0   -7.1    2.0
H    -3.5   -2.2    8.6
H     9.4   -1.3    0.1
H    -2.8   -3.4   -8.4
I    -0.1   -9.5    0.8
H    -7.8    0.6    5.7
N    -7.9    1.5    5.3
H     5.5   -3.2    7.2
P    -2.7    3.7   -8.5
I    -2.9    9.2   -0.6
H     1.7   -6.3   -7.1
H     6.3    6.9    2.5
I     8.0    5.3   -1.7
H     0.4    9.7    0.1
H     9.4   -2.3   -1.4
I     1.7   -9.1   -3.4
C    -3.0   -8.6   -3.7
I    -0.1    8.9   -4.3
P     1.6   -0.0    9.8
H    -1.8   -2.3   -9.5
N     5.9   -2.3    7.7
I     4.4   -9.0    0.3
H    -7.7    4.2   -4.8
H    -7.6    2.2    6.1
H    -5.9    5.3   -6.1
N     5.9   -1.3   -8.0
I    -4.5   -9.0    0.3
H     5.1   -1.2   -8.6
I     8.1   -5.8   -1.7
I    -5.5    2.2    8.2
I     8.8   -2.2   -4.3
P     6.1    7.4   -3.2
H    -7.5   -5.2   -4.4
P     6.1    3.7    7.2
H     7.5   -6.3    2.7
C    10.0   -1.7   -0.7
H    -4.1   -8.5   -3.9
H    -5.8   -5.7   -6.1
I    -9.0   -2.2   -4.3
H    -6.2    8.1   -0.9
H     1.9    0.3  -10.0
H    -2.5   -8.8   -4.6
I     6.3    5.5   -5.9
H     6.5   -0.5   -7.9
H    -3.3   -9.6   -1.9
C     1.9   -9.3    4.1
I     6.4   -5.5   -5.9
P    -7.1   -7.4   -0.7
H     1.5   10.1   -1.3
H     1.5   -4.6    9.2
I    -7.4   -1.7    7.1
H     5.4   -2.2    8.6
H     8.9    1.7    5.1
H    -8.9    1.7    5.1
H    -1.8   -9.9   -2.6
H     0.3    5.1    9.1
H     6.3   -7.7   -3.2
H     4.8   -8.5   -3.9
H     2.9    1.6  -10.0
N    -2.8   -9.7   -2.8
H    -7.2    7.7    0.4
H    -7.6    5.9   -4.4
H    10.4   -0.9   -1.3
I    -2.6   -9.2    4.6
H     0.6    2.3  -10.3
I     3.5    9.5    3.0
I    -9.8   -2.2    3.3
H     1.7  -10.0    3.3
P    -2.8   -7.3    7.2
H     0.1   -9.4    5.1
N    -7.8    5.2   -5.1
H     6.9   -2.5    7.9
H    -7.1   -4.6   -6.7
H     3.0   -9.4    4.4
H     1.3   -8.9    6.1
I     8.0    1.4   -7.1
H     2.6    4.4    9.5
N    -6.8    8.5   -0.2
N     2.3    1.1  -10.6
C    -7.0    5.5   -6.3
H     0.4   -6.0    9.1
C    -6.9   -5.6   -6.3
N     1.1   -9.5    5.3
H     6.1   -3.4   -8.4
H    -6.2    9.0    0.5
I    -0.1    5.2   -9.6
N    -7.7   -5.8   -5.1
I     6.0    9.2   -0.6
C     5.9   -8.6   -3.7
H    10.5    1.1    3.3
C     6.7   -2.5   -8.5
I    -6.9   -1.8   -8.5
P     6.2    3.7   -8.5
C     1.0   -5.4    9.7
H     7.6   -2.6   -7.8
I    10.5    2.0   -3.4
H   -10.8    1.2   -2.6
P    10.6    3.6   -0.7
H    -7.2    4.7   -7.1
H    10.7   -3.4    0.4
H    -3.5    7.8    7.2
H     5.6   -9.6   -1.9
I    -0.0   -5.8   -9.6
I    -9.8    5.3   -1.7
H    -7.6   -6.8   -4.8
C     0.9    5.7    9.7
H     1.4    6.5    9.2
N     9.9    1.5    5.3
P    -7.3    7.4    4.6
N    11.1   -2.6   -0.2
C     1.2    1.9  -11.2
I    -5.4    9.5    3.0
I    -9.7   -5.8   -1.7
I    -0.3   -2.1   11.3
P    -2.7  -11.0    1.9
H    -7.1   -8.2    3.8
H    10.0    0.6    5.7
H    -3.2  -10.6   -3.2
N     2.0    4.8   10.3
H    -1.4    8.4   -7.8
P    -2.6   -7.4   -8.5
I    -2.8    1.8  -11.1
H    10.6    2.8    3.8
P    -2.8   11.1    1.9
H    -2.8    9.7    5.8
I     4.4    9.7   -4.7
I    -2.9   -5.5    9.8
H    -8.8    5.3   -5.4
I    -3.0    5.5    9.8
I     4.2   -1.6   10.7
C    10.8    1.8    4.1
I    -4.5    9.7   -4.7
H     1.7    4.0   10.8
H    -2.1    1.4   11.4
H     0.4   -5.0   10.6
H     2.8    0.7  -11.4
H   -10.4    4.8    2.7
H     9.0    5.3   -5.4
H    -7.1    6.5   -6.7
H    -8.8   -5.7   -5.4
H    -6.0    1.6  -10.0
H    -2.9    7.7   -8.4
H    -2.1    8.5    7.9
N     6.1   -9.7   -2.8
P   -11.6    0.0    1.9
H     6.4   -8.8   -4.6
I    -4.7   -1.6   10.7
I     1.4    9.4    7.1
I     8.7    5.2    6.1
P     1.8   -3.7  -11.1
H    11.7   -2.0    0.5
H     0.5    1.3  -11.8
I   -11.7   -1.9   -0.6
I     7.9    1.6    8.7
H    -7.2   -6.3   -7.1
H    -5.9   -9.4    4.4
H     2.7   -6.7    9.5
H    10.1    4.2   -4.8
H     1.2  -10.5    5.7
H     5.4    7.8    7.2
H     9.0   -5.7   -5.4
P     6.1   -7.3    7.2
N    -3.1    8.7    7.7
I    -0.8   -9.6   -7.1
H    10.2    2.2    6.1
H     7.1   -2.3   -9.5
H   -10.9    5.1    1.0
I     6.3   -9.2    4.6
H    11.7   -3.0   -0.9
P    10.6   -3.7    4.6
I    -7.2   -9.1   -3.4
P    10.6   -0.0   -5.8
H     1.6  -12.0   -1.3
I    -9.1    5.2    6.1
H     1.6    2.8  -11.7
I    -9.8    1.4   -7.1
I     3.7   -8.9   -7.4
I     8.8   -5.8    6.1
H     0.4    6.1   10.6
P    -7.3   -0.0    9.8
N   -11.8    1.3   -2.8
N     2.1   -6.2   10.3
C    -2.3    8.5   -8.5
H    -6.3    4.4    9.5
C    -7.9    9.3   -0.7
I    10.7    5.6    1.9
H    -8.5    8.7   -1.4
H    -7.0    0.3  -10.0
I    10.8   -5.5    1.9
I     4.4   -5.3  -10.1
I    -4.5   -5.3  -10.1
I     7.9    8.8    3.3
C    -7.0   -9.3    4.1
H    -3.4    9.6   -7.0
H    10.3   -5.2   -4.4
H   -10.3   -6.3    2.7
H   -11.4   -4.1    2.5
I    -0.7   -2.1  -12.2
I    -9.0   -5.8    6.1
N    10.0    5.2   -5.1
H   -10.8   -6.0    1.0
C    -3.3    9.9    6.7
H     0.6  -12.4    0.1
C   -11.2    4.9    2.0
H    -3.4   11.5   -3.2
H     7.1   -9.9   -2.6
H     5.7  -10.6   -3.2
I     4.4    5.8  -10.1
H     2.6    5.4   10.9
H   -11.6    3.4   -3.2
I     3.5   -8.8    8.2
I    -4.5    5.8  -10.1
H   -12.3    1.5   -1.9
I   -11.5    1.9    4.6
N    -6.6    1.1  -10.6
H    10.2    5.9   -4.4
P     1.6   11.0   -5.8
P   -11.6   -3.7   -3.2
H   -11.5    2.3   -4.6
H     2.7   -5.7   10.9
I     1.8    1.9   12.4
H    -2.0   12.2   -2.6
I    -0.3   12.6    0.8
H    -7.4   10.1   -1.3
H    -7.4   -4.6    9.2
P     1.8  -11.1   -5.8
H   -12.2    0.5   -3.2
H     1.5   12.1    3.3
