         400
 sphere cut out from bulk 
I     1.6   -0.9    1.3
I    -1.0   -0.3   -2.1
P     1.6    1.6   -0.8
P    -1.0   -2.8   -0.1
I    -0.9    3.1    0.6
P    -3.4    1.6   -0.8
I    -3.5   -1.0    1.3
H     0.2   -0.7   -4.3
H    -0.5   -0.9    4.3
I     4.0   -0.3   -2.1
H     3.0   -0.6    3.4
I     1.5   -4.1   -1.5
P     4.0   -2.8   -0.1
I     1.4    3.4   -3.4
H    -2.7   -1.7    3.9
I     4.1    3.0    0.7
H     0.5    4.8    1.9
C    -0.9   -1.6    5.0
I    -1.2   -4.6    2.4
N     0.4   -0.8   -5.3
H    -0.6   -2.7    4.8
H     2.5    0.0    4.9
N     3.3   -0.5    4.4
N    -2.4   -1.5    4.9
I    -3.5   -4.2   -1.5
H     1.2    1.1   -5.6
H     1.2   -1.4   -5.5
H    -2.7   -0.5    5.1
I    -3.5    3.4   -3.3
H    -0.5    1.0   -5.8
H     1.7    4.1    3.9
H    -0.4   -1.4   -5.7
H     2.4   -2.4    4.9
C     0.4    0.5   -6.0
I     0.8    1.5    5.8
H    -0.0    4.3    4.2
H     4.1    0.1    4.6
N     0.8    5.5    2.7
H    -0.6   -1.4    6.0
I    -5.9   -0.3   -2.1
C     0.9    4.8    4.0
C     3.4   -1.9    5.1
H    -0.3    5.0   -4.1
H    -3.2    4.1    3.9
I     3.8   -4.7    2.4
H    -4.8   -0.7   -4.3
H    -2.9   -2.2    5.5
P    -6.0   -2.8   -0.1
H    -0.0   -5.2   -4.1
I    -5.9    3.0    0.7
H     4.2   -2.4    4.6
H    -1.1   -5.9   -2.9
I     6.5   -1.0    1.3
H     1.7    6.0    2.4
H    -4.4    4.8    1.9
H     5.2   -0.7   -4.3
H    -1.9    4.8   -4.4
P     6.6    1.6   -0.8
H    -3.7    1.1   -5.6
H     0.1    6.2    2.7
H    -3.7   -1.4   -5.6
H     0.5   -6.4    2.7
C    -0.9   -5.8   -4.0
H     0.5    0.4   -7.1
N    -4.6   -0.8   -5.4
H    -1.8   -5.3   -4.4
I    -4.1    1.4    5.7
N    -1.1    5.5   -4.5
H    -3.2    6.0    2.4
H     3.1    4.8   -4.4
H     3.6   -1.7    6.1
N    -4.1    5.5    2.6
H     2.1   -6.6    2.4
H     4.4    1.0   -5.8
C    -4.0    4.8    4.0
H    -5.8    0.1    4.6
H     1.2    5.6    4.8
H    -1.5    6.7   -2.9
I    -2.0   -2.9   -6.5
H     4.6   -1.4   -5.8
C    -4.5    0.5   -6.0
H     5.5    4.8    1.9
H    -2.8   -6.6    2.4
H     3.9   -5.9   -2.9
N     5.3   -0.8   -5.4
H     3.2   -5.3   -4.5
N     1.2   -7.1    2.7
H    -5.7   -2.4    4.6
I     2.9   -2.9   -6.5
H    -6.9   -0.6    3.4
H    -4.9    4.3    4.2
I     6.4   -4.2   -1.5
H     5.0    4.3    4.2
H    -0.8    5.5   -5.6
I     6.4    3.4   -3.3
H     4.7    5.0   -4.1
H    -5.3   -1.4   -5.8
C    -1.3    6.8   -4.0
N    -6.7   -0.5    4.4
H    -5.5    1.0   -5.8
H     0.9   -7.8    1.9
C     5.4    0.5   -6.0
I    -6.1   -4.7    2.4
C     4.1   -5.8   -4.0
H     3.5    6.7   -2.9
N     3.9    5.5   -4.5
H    -3.7    5.6    4.7
H    -4.5   -6.4    2.7
H     4.9   -5.2   -4.1
H    -5.0   -5.2   -4.1
H    -5.2    5.0   -4.1
I     5.8    1.4    5.7
H    -4.8    6.2    2.7
H    -4.4    0.4   -7.1
H     7.2   -1.7    3.9
N     5.8    5.5    2.6
I     1.2   -3.6    7.5
H     6.2    1.1   -5.6
H     6.2   -1.4   -5.6
N    -3.7   -7.1    2.6
I    -1.6    8.0    2.4
H     5.1    6.2    2.7
C    -6.5   -1.9    5.1
N    -0.7   -7.1   -4.5
I    -8.3   -0.9    1.3
H    -0.4    7.4   -4.1
P    -8.3    1.6   -0.8
C     6.0    4.8    4.0
H     1.5   -7.0    4.8
H     0.1   -7.6   -4.1
I     1.1    8.5   -1.5
C     3.7    6.8   -4.0
I    -1.6    5.1    6.9
H    -2.2    7.3   -4.4
H     6.8    4.1    3.9
H     5.5   -6.4    2.7
C     1.3   -7.8    4.0
H     4.1    5.5   -5.5
H     7.2   -0.5    5.1
H    -7.4    0.0    4.9
I    -2.2    2.2   -8.3
H    -6.1   -5.9   -2.9
I     3.4    7.9    2.4
P     0.9    3.2    8.3
H    -4.0   -7.8    1.9
H     2.8    7.3   -4.5
H    -6.3   -1.7    6.1
H     5.5    0.4   -7.1
H    -0.5   -7.1   -5.6
I     2.7    2.2   -8.3
H    -1.5   -7.8   -4.4
N     7.5   -1.5    4.9
I    -3.8   -3.6    7.5
H    -3.3   -7.0    4.7
C    -5.9   -5.8   -4.0
I     9.0   -0.3   -2.1
I     3.3    5.1    6.9
H     7.1   -2.2    5.5
H    -7.5   -2.4    4.9
H     0.3   -8.3    4.2
H     6.7    6.0    2.4
N    -6.0    5.5   -4.5
P     8.9   -2.8   -0.1
I    -3.9    8.4   -1.5
H    -6.8    4.8   -4.4
C    -3.6   -7.8    4.0
N     4.3   -7.1   -4.5
I    -0.5   -9.5    0.6
I    -8.5   -4.1   -1.5
I     9.0    3.1    0.6
H     6.2    5.6    4.7
H     3.5   -7.8   -4.4
H     2.1   -8.5    3.9
H     4.6    7.4   -4.1
H    -6.7   -5.3   -4.5
I    -8.5    3.4   -3.4
P    -4.0    3.2    8.3
H    -5.8    5.5   -5.5
H    -6.4    6.7   -2.9
H    -2.8   -8.5    3.9
N     6.2   -7.1    2.6
H    -4.8   -7.6   -4.1
P    -1.4    9.8   -0.1
I     0.1    6.1   -7.8
H     5.9   -7.8    1.9
H     7.1   -6.6    2.4
H    -8.2    4.1    3.9
I     1.8   -9.2   -3.4
H     5.1   -7.6   -4.1
I    -7.0   -2.9   -6.5
H    -5.4    7.4   -4.1
H     4.5   -7.1   -5.5
C    -6.3    6.8   -4.0
I    -1.5    1.9    9.8
N    -5.6   -7.1   -4.5
I     0.5   -6.5   -7.8
I     8.7   -4.6    2.4
I     6.1   -3.6    7.5
I    -1.3   -7.5    6.9
I    -3.1   -9.2   -3.3
P    -1.3   -4.9    9.0
H    -4.5   -8.3    4.2
H    -8.7    1.1   -5.6
H     8.1    4.8   -4.4
H    -8.7   -1.4   -5.5
P     3.6    9.8   -0.1
C     9.0   -1.6    5.0
H     9.5   -0.9    4.3
H    -8.2    6.0    2.4
P    -2.0   -4.6   -9.1
P     0.2    3.5   -9.8
H    -5.4   -7.1   -5.5
I     6.0    8.4   -1.5
H    -7.8   -6.6    2.4
I    -6.5    7.9    2.4
I     3.4    1.9    9.8
I     4.5   -9.6    0.7
P     5.9    3.2    8.3
I     7.9   -2.9   -6.5
H    -9.7   -0.7   -4.3
P     2.9   -4.6   -9.1
H     8.1   -5.3   -4.4
H    -9.4    4.8    1.9
H     6.6   -7.0    4.7
H     5.4   -8.3    4.2
H     9.3   -2.7    4.8
C     6.3   -7.8    4.0
I    -6.6    5.1    6.9
I    -9.1    1.5    5.8
I     3.7   -7.5    6.9
P     3.7   -4.9    9.0
N    -9.1    5.5    2.7
N    -9.5   -0.8   -5.3
C    -9.0    4.8    4.0
I    -4.8    6.1   -7.8
H    -6.4   -7.8   -4.4
H     8.8   -5.9   -2.9
H    10.1   -0.7   -4.3
I    -5.5   -9.6    0.7
I   -10.9   -0.3   -2.1
H    -1.0    9.9    4.8
H     9.4    1.0   -5.8
I    -4.4   -6.5   -7.8
H     1.2    0.1   11.0
H    -7.1    7.3   -4.5
I     5.1    6.1   -7.8
H     9.3   -1.4    6.0
I     0.5   -3.2  -10.7
P     2.0  -11.0   -0.8
H     8.5    6.7   -2.9
I    -7.2    2.2   -8.3
H     9.5   -1.4   -5.7
C    -9.5    0.5   -6.0
I   -10.8    3.1    0.6
H   -10.4   -0.9    4.3
P   -10.9   -2.8   -0.1
N     8.9    5.5   -4.5
P    -3.0  -11.0   -0.8
H    -8.8    5.6    4.8
C     9.0   -5.8   -4.0
P    -4.7    3.5   -9.8
H     2.0   10.2    4.9
H     7.8    7.3   -4.4
N    -8.7   -7.1    2.7
I     5.5   -6.5   -7.8
I     7.7    2.2   -8.3
H     9.9    4.3    4.2
I    11.5   -0.9    1.3
H     9.7    5.0   -4.1
N    10.3   -0.8   -5.3
P     5.2    3.5   -9.8
P    11.5    1.6   -0.8
H   -10.0    4.3    4.2
P    -6.3    9.8   -0.1
H    -3.7    0.1   11.1
H    10.5    4.8    1.9
H    -9.4   -6.4    2.7
C     8.6    6.8   -4.0
H    -9.4    0.4   -7.1
I     0.8    9.0    7.5
I     8.4    8.0    2.4
H     7.1   -8.5    3.9
H     3.8   10.2    4.6
I     1.2   11.7    1.3
I     0.8    5.7   10.3
H   -10.3   -1.4   -5.7
H   -10.6   -2.7    4.8
I    -6.5    1.9    9.8
H     9.9   -5.2   -4.1
P    -1.7    7.7    9.0
I    -2.4    9.7   -6.5
H    -8.4   -7.0    4.8
H    -9.8    6.2    2.7
I     2.5    9.7   -6.5
H    -9.9   -5.2   -4.1
I     6.8   -9.2   -3.3
I    -4.5   -3.3  -10.6
I     8.3    5.1    6.9
C    10.3    0.5   -6.0
I    -6.2   -7.5    6.9
H   -10.5    1.0   -5.8
H     9.1    5.5   -5.6
P    -6.3   -4.9    9.0
H    -3.1   10.9    3.9
H   -10.2    5.0   -4.1
H    -9.0   -7.8    1.9
C   -10.8   -1.6    5.0
I    -8.8   -3.6    7.5
I    -1.4   -3.2   11.6
H    10.0    6.2    2.7
C    -1.3   11.0    5.0
C     1.1    0.2   12.1
I    11.4   -4.1   -1.5
C     3.0   10.7    5.1
P     3.3    7.7    9.0
H    -3.2   10.4    5.5
H    -7.8   -8.5    3.9
H   -10.6   -1.4    6.0
H    -2.1   -1.4  -12.0
I   -11.1   -4.6    2.4
H     8.4   -7.8   -4.4
C    -8.6   -7.8    4.0
I    -3.8   11.6    1.3
I    11.4    3.4   -3.4
I    10.8    1.5    5.8
I     5.4   -3.3  -10.6
I    -8.8    8.5   -1.5
H     0.2    0.7   12.3
P    -2.4    8.0   -9.1
N    10.8    5.5    2.7
P     2.6    8.0   -9.1
P    -7.0   -4.6   -9.1
N    -2.8   11.1    4.9
I    -4.2    9.0    7.5
I     1.2   -6.9   10.3
H     0.3   -1.7   12.3
H    -0.8   11.7    4.3
H    10.4   -6.4    2.7
I     0.2    1.7  -12.4
I    -4.1    5.8   10.3
C    10.8    4.8    4.0
H    11.2    1.1   -5.6
H    11.2   -1.4   -5.5
N     9.3   -7.1   -4.5
H     0.9   11.2   -5.5
I     3.6   -3.2   11.6
I    -1.3   12.3   -2.1
P     1.3   -9.4    8.3
H    -0.8   11.2   -5.7
I     1.2  -11.1    5.8
H    -0.2   11.9   -4.3
H    10.5    0.4   -7.1
I    -2.3    5.4  -11.2
H     3.6   -1.1  -12.1
P    -9.0    3.2    8.3
H     6.2    0.1   11.1
I     2.6    5.4  -11.2
H     2.0    0.8   12.5
C    -3.8    0.2   12.1
H    -6.1   10.2    4.6
I    -8.1   -9.2   -3.4
H     9.5    7.4   -4.1
H    -1.0   11.2    6.0
H     2.6   12.0    3.4
H     1.4   -1.9  -12.6
H   -11.0   -5.9   -2.9
H     2.0   -1.7   12.6
N     1.1   -1.1   12.8
H     3.2   10.9    6.1
H     1.6  -11.5   -5.6
C   -10.8   -5.8   -4.0
I    -3.7   -6.8   10.3
H    -3.0    0.8   12.5
H    -0.1  -11.6   -5.8
H    11.6    4.1    3.9
N    -0.0   11.8   -5.3
P     7.9   -4.6   -9.1
P     8.5    9.8   -0.1
P     6.9  -11.0   -0.8
I     3.6   12.3   -2.1
P    -3.6   -9.4    8.3
I    -0.6  -12.9   -2.1
I     8.4    1.9    9.8
I     5.7    9.0    7.5
H    -3.0   -1.7   12.6
H     9.5   -7.1   -5.6
H     1.6   -0.2  -13.0
H    -9.8   -7.6   -4.1
N   -11.0    5.5   -4.5
I    -3.7  -11.2    5.7
I     5.8    5.8   10.3
N     2.9   12.1    4.4
I     6.1   11.6    1.3
H    -4.1   11.2   -5.6
H    -3.3  -11.5   -5.6
H    -4.8    0.7   12.3
H    10.0   -7.6   -4.1
H    11.1    5.6    4.8
H     4.2   11.2   -5.8
H    11.6    6.0    2.4
