         400
 sphere cut out from bulk 
P    -0.5   -0.0   -1.0
I     2.0   -0.0    1.2
I    -1.8    2.0    1.2
I    -1.7   -2.1    1.1
P    -0.5   -0.1    3.3
I     1.0    2.1   -3.0
I     0.7   -2.1   -3.0
H     3.6   -1.9    0.4
I    -2.8    0.2   -3.1
H     3.6    1.9    1.9
H    -0.9    4.5   -0.0
H     3.3   -2.9   -1.8
H     0.6    4.3   -1.9
H    -4.1   -2.5    0.4
N     4.2   -2.7    0.1
H     4.5   -1.7   -1.8
H    -4.1    2.5    1.9
P    -0.4   -0.0   -5.2
C     4.2   -2.7   -1.4
H     3.9   -3.6    0.4
H    -4.8   -1.7   -1.8
N     0.5    5.2   -1.4
H    -1.1   -4.7    2.4
C    -0.8    5.3   -0.7
H     1.3    5.3   -0.6
N     4.2    2.6    2.3
H     3.9    3.6    1.9
H     3.3    2.4   -3.9
H    -1.6    5.3   -1.5
I     0.7    2.0    5.3
N    -5.1   -2.7    0.1
H     0.6   -5.1    2.5
H     5.2   -2.5    0.4
H    -4.3   -3.4   -1.8
H    -0.0   -4.4   -3.8
I     0.8   -2.2    5.3
C    -5.1   -2.7   -1.4
H     3.2    3.0    4.1
H    -5.7   -1.9    0.4
H     5.2    2.5    1.9
I    -2.9   -0.2    5.3
C    -0.4   -5.4    2.8
H    -4.4    1.9   -3.9
N    -5.1    2.6    2.3
C     4.2    2.7    3.8
H     4.4    1.6    4.1
H     5.0   -3.4   -1.8
H    -5.7    1.9    1.9
H    -0.9    6.3   -0.2
H     0.7    6.0   -2.0
H    -0.1   -4.5    4.7
H    -5.4   -3.6    0.4
H     4.9    1.9   -3.9
H    -4.9    1.6    4.1
N     4.3    2.6   -4.3
I     3.0    5.8    1.1
I     3.1   -5.9    1.2
H    -5.4    3.6    1.9
N    -0.3   -5.3   -4.2
H    -1.3   -5.5   -3.8
H    -4.3    3.4    4.1
C    -5.1    2.7    3.8
N    -0.5   -5.4    4.3
H    -0.6   -6.4    2.5
H    -6.0   -2.9   -1.8
H     4.6    3.6   -3.9
H    -4.7    3.6   -3.9
N    -5.0    2.6   -4.3
H     0.3   -6.1   -3.8
I     6.5    0.2   -3.1
H     5.0    3.4    4.1
I    -7.3   -0.0    1.2
H    -1.4   -5.5    4.7
H     3.2   -2.5    6.2
P    -0.4   -0.1    7.5
I     2.1   -0.0   -7.2
H    -6.0    2.4   -3.9
H     4.2    1.6   -6.1
I    -3.6   -6.0   -3.0
I    -4.0    5.8   -3.0
C     4.3    2.7   -5.8
H    -1.1   -4.7   -6.0
I    -1.5   -2.1   -7.3
H     0.1   -6.1    4.7
H     3.5    3.3   -6.1
I    -1.6    2.1   -7.3
C    -0.3   -5.4   -5.7
H     0.1    4.5    6.4
H     0.6   -5.0   -6.0
H    -4.5   -2.0    6.2
I     7.5    2.0    1.2
H    -6.1    3.0    4.1
H    -4.1    3.0   -6.1
I     7.6   -2.1    1.1
H     4.8   -2.0    6.2
C    -5.0    2.7   -5.8
H    -5.1    1.6   -6.1
N     4.2   -2.7    6.6
I     6.4   -0.2    5.3
I     5.3    5.8   -3.0
I    -2.6    8.0    1.2
H     4.5   -3.6    6.2
I    -2.6   -8.1    1.2
I    -6.2   -5.9    1.2
H     5.2    3.0   -6.1
I    -6.3    5.8    1.1
H    -4.8   -3.6    6.2
I     1.9   -7.9   -3.0
N    -5.1   -2.7    6.6
H    -0.5   -6.4   -6.0
I     5.7   -6.0   -3.0
I    -3.8   -5.8    5.4
I     1.8    8.1   -3.0
P     8.8   -0.0   -1.0
C    -0.0    5.3    7.2
I    -3.9    6.0    5.4
H    -6.1   -2.5    6.2
H    -2.1    5.2    7.1
H    -5.8    3.3   -6.1
I    -8.3    2.1   -3.0
P     4.4   -8.0   -0.9
P     4.3    8.1   -0.9
H     0.1    6.3    6.8
P    -0.3   -0.1   -9.4
I    -8.6   -2.1   -3.0
P     8.8   -0.1    3.3
P    -4.9   -8.0   -0.9
H     4.0   -1.6    8.4
C     4.2   -2.6    8.1
N    -1.4    5.2    7.8
H    -1.5    4.3    8.3
H     7.7    5.3   -1.5
H     0.7    5.1    8.0
P    -5.0    8.1   -0.9
H     8.4    4.5   -0.0
H     4.2   -1.6   -8.5
H    -1.4    4.3   -8.5
P     4.2    8.0    3.3
H    -8.0    5.3   -0.6
H     3.3   -3.3    8.4
I     5.5   -5.8    5.4
P     4.3   -8.0    3.3
H     3.5   -3.3   -8.4
I     1.8   -7.9    5.3
I     5.4    6.0    5.4
H     8.2   -4.7    2.4
H    -0.8   -9.7   -0.2
I     1.9   -0.0    9.6
H    -4.0   -3.0   -8.4
P    -9.8   -0.0   -1.0
I     3.2   -5.9   -7.2
I     3.1    6.0   -7.2
H    -8.7    4.3   -1.9
H    -4.2   -3.0    8.4
I    -1.7    2.1    9.5
I     1.8    8.1    5.3
C    -5.1   -2.6    8.1
I    -1.7   -2.1    9.5
H    -0.7    9.6    2.5
H    -5.1   -1.6   -8.5
P    -5.1    8.0    3.3
H    -5.3   -1.6    8.4
P    -5.0   -8.0    3.3
C     8.5    5.3   -0.7
C     4.3   -2.6   -8.8
I    -7.2   -0.0   -7.2
H     0.7  -10.0   -2.0
H     0.9    5.1   -8.8
I    -8.5   -2.2    5.3
I    -8.6    2.0    5.3
N    -8.8    5.2   -1.4
P    -9.8   -0.1    3.3
H     5.1   -3.0    8.4
P     8.9   -0.0   -5.2
H    -1.4    5.9   -8.3
H     5.3   -3.0   -8.4
H    -8.7   -5.1    2.5
C    -5.0   -2.6   -8.8
H     8.0   -5.5   -3.8
P     4.3    8.0   -5.2
I     6.7    8.0    1.2
P     4.3   -8.0   -5.2
H    -1.6    5.9    8.5
N    -1.2    5.2   -9.0
H     8.4    6.3   -0.2
I     6.7   -8.1    1.2
H     0.3   10.0   -3.8
I    10.0   -2.1   -3.0
I     3.1   10.2    1.2
H    -8.6    6.0   -2.0
H     7.9   -5.5    4.7
I     3.1  -10.2    1.1
H    -5.8   -3.3   -8.4
P    -5.0   -8.0   -5.2
C    -0.8  -10.7   -0.7
P    -5.0    8.0   -5.2
C     8.9   -5.4    2.8
H    -6.0   -3.3    8.4
I     7.8   -2.1   -7.3
I     7.7    2.1   -7.3
H     1.3  -10.8   -0.6
I    10.3    2.1   -3.0
N     0.6  -10.8   -1.4
H     9.3   -4.4   -3.8
H     0.1    9.9    4.7
C     0.1    5.3   -9.6
P    -9.7   -0.0   -5.2
H    -9.3   -4.4   -3.8
C    -0.4   10.6    2.8
H    -1.5  -10.8   -1.5
H     9.9    4.3   -1.9
I    -2.6    7.9   -7.2
I    -3.7   10.0   -3.0
H     8.7   -6.4    2.5
I    -6.1   -5.9   -7.2
I    -2.5   -8.1   -7.2
H   -10.2    4.5   -0.0
H     8.2   -4.7   -6.0
H     0.6   10.9    2.5
N     8.8   -5.4    4.3
N     9.8    5.2   -1.4
H     9.2   -4.5    4.7
N     9.0   -5.3   -4.2
H    -1.3   10.5   -3.8
H    -2.0    5.2   -9.8
I    -7.4   -7.9   -3.0
I    -6.2    6.0   -7.2
I   -11.0   -2.1    1.1
I   -11.0    2.0    1.2
H     0.2    4.5  -10.4
H     7.2    5.2    7.1
I    11.3   -0.0    1.2
I    -4.0  -10.2   -3.0
H    -0.5    9.7   -6.0
I    -7.5    8.1   -3.0
H    -9.4   -4.5    4.7
H     9.9   -5.1    2.5
C   -10.1    5.3   -0.7
H     3.4   -2.5  -10.6
N     4.3   -2.7  -10.3
C    -9.7   -5.4    2.8
N    -0.4   10.7   -4.2
H    -9.0   -6.1   -3.8
N    -0.5   10.6    4.3
I    10.0    2.0    5.3
H     4.0    1.6   10.7
H    -0.9  -11.5   -0.0
P     8.9   -0.1    7.5
H    -1.5   10.5    4.7
H    -1.2   11.3    2.4
H    -4.3   -2.0  -10.6
I     2.9    6.0    9.6
P    -0.5   -0.0   11.6
I     3.0   -5.9    9.6
I    10.1   -2.2    5.3
H    -8.7   -5.0   -6.0
H     3.3    3.3   10.7
P     4.1   -8.0    7.5
I     0.9    2.0  -11.5
N    -5.0   -2.7  -10.3
H   -10.4   -4.7    2.4
I     1.0   -2.2  -11.5
P     4.1    8.1    7.5
N    -9.6   -5.3   -4.2
I    -2.7   -0.2  -11.5
H    10.6    5.3   -0.6
H     0.2    6.3  -10.0
H    10.0    6.0   -2.0
H    -1.3   -4.7   10.8
H     0.7  -11.7   -1.9
C     9.0   -5.4   -5.7
I     5.6   10.0   -3.0
H     0.1   -9.8    6.8
H     5.0   -2.0  -10.6
H    -4.2    3.0   10.7
H     0.5   -5.0   10.8
I     5.3  -10.2   -3.0
I    -6.2   10.2    1.2
H   -10.2    6.3   -0.2
N    -9.8   -5.4    4.3
H     9.6   -6.1   -3.8
I    -6.2  -10.2    1.1
H    -9.2   -6.1    4.7
H    -5.3    1.6   10.7
C     4.1    2.7   11.1
C    -0.4   10.7   -5.7
H    -9.9   -6.4    2.5
P    -5.2   -8.0    7.5
I    -7.4   -0.0    9.6
I    -3.9  -10.1    5.4
H    -4.6   -3.6  -10.6
I    -7.5   -7.9    5.3
H    -9.2    4.5    6.4
H     4.7   -3.6  -10.6
H   -10.9    5.3   -1.5
I    -3.9   10.2    5.4
H     7.8    4.3    8.3
P    -5.2    8.1    7.5
H     9.3    4.5    6.4
H     9.4   -6.1    4.7
H    -0.0   11.6   -3.8
N     7.9    5.2    7.8
H     5.1    3.0   10.7
P    -9.7   -0.1    7.5
I    -7.5    8.1    5.3
I     7.6    2.1    9.5
C    -0.5   -5.4   11.2
I     7.6   -2.1    9.5
C    -9.6   -5.4   -5.7
H     7.9    4.3   -8.5
H     8.8   -6.4   -6.0
H    -5.9   -2.5  -10.6
H    -0.1   11.6    4.7
C    -5.2    2.7   11.1
I   -12.1    0.2   -3.1
H   -10.6   -5.5   -3.8
H    -0.7   -6.4   10.8
H     0.6   11.0   -6.0
H     9.9   -5.0   -6.0
I     5.4  -10.1    5.4
I     6.7    7.9   -7.2
H    -6.0    3.3   10.7
I    -2.7    7.9    9.6
I     5.4   10.2    5.4
H    -8.6    5.1    8.0
I     3.1  -10.1   -7.2
I     6.8   -8.1   -7.2
I     3.1   10.1   -7.2
I    -2.7   -8.1    9.6
C     9.3    5.3    7.2
H    -1.2   11.3   -6.0
H     8.5   -9.7   -0.2
C    -9.3    5.3    7.2
H   -10.4   -4.7   -6.0
I    -6.3   -5.9    9.6
H     0.0   -4.5  -12.1
H     7.7    5.9    8.5
H     7.9    5.9   -8.3
H   -10.7   -5.5    4.7
C    -0.0  -10.8    7.2
I    -6.4    6.0    9.6
P     4.3   -8.0   -9.3
P     9.0   -0.1   -9.4
H    12.6   -2.9   -1.8
H     3.8   12.4    0.4
H    -9.2    6.3    6.8
P     4.2    8.1   -9.3
H    12.9   -1.9    0.4
H    -2.1  -10.8    7.1
H    -9.8   -6.4   -6.0
H     8.6    9.6    2.5
H    12.9    1.9    1.9
N     8.1    5.2   -9.0
H     9.4    6.3    6.8
H    -1.4  -10.1   -8.3
H     0.1  -11.5    6.4
H     3.9  -12.5    1.9
I   -10.8   -2.1   -7.3
H    -8.4    5.1   -8.8
P    -5.0   -8.0   -9.3
I     6.6   -0.2  -11.5
I   -10.9    2.1   -7.3
H    -1.5  -10.1    8.5
H     7.3    5.2   -9.8
I   -12.2   -0.2    5.3
H    -8.6  -10.0   -2.0
P    -5.1    8.1   -9.3
I    -3.7   -5.8  -11.4
H     7.8  -10.8   -1.5
I    -3.8    6.0  -11.4
P    -9.6   -0.1   -9.4
H    -1.3   -5.5  -12.1
H    12.6    2.4   -3.9
H    -8.0  -10.8   -0.6
N    -1.4  -10.9    7.8
H    -4.3   12.6   -1.8
H     3.4    3.0  -12.7
N     4.1    2.6   12.5
I    11.4   -0.0   -7.2
H     3.2    2.4   12.9
H    12.5    3.0    4.1
H     0.3   -6.1  -12.1
P    -0.3   -0.1  -13.6
H     0.7  -11.0    8.0
H    -5.5   12.4    0.4
H     4.6    1.7  -12.7
H     3.2   13.1   -1.8
N    -0.3   -5.4  -12.5
H    -4.7    1.7  -12.7
H     4.9   12.6   -1.8
H    13.2   -3.6    0.4
H   -13.4   -2.5    0.4
C     8.5  -10.7   -0.7
I    12.3    5.8    1.1
H    -5.4  -12.5    1.9
H     8.0   10.5   -3.8
H    -0.2   -4.4   13.0
N    -0.5   -5.3   12.7
H    10.0    5.1    8.0
H    13.2    3.6    1.9
