         400
 sphere cut out from bulk 
I    -0.3   -1.5   -0.5
P    -2.2    1.0   -0.0
I     0.3    3.1   -0.5
H     2.1    1.8   -1.9
H     1.0    0.0   -3.1
H     2.9    0.3   -1.6
H    -1.8   -2.2    2.1
H     2.8    1.3    1.9
N     2.6    1.0   -2.3
I    -1.7    0.9    3.1
H     0.8    1.5    3.3
C     1.9    0.4   -3.5
P     2.2   -3.4   -0.0
C     2.8    1.2    3.0
H     2.8    0.1    3.3
I     4.2   -1.0    0.3
N     1.7    1.9    3.6
I    -2.9    1.2   -3.2
H    -0.7   -3.2   -3.2
C    -2.3   -3.1    2.5
H     3.5    1.4   -2.6
H     2.5   -0.3   -3.9
H     1.7    2.9    3.3
H     1.7    1.2   -4.2
H    -2.9   -3.2   -2.2
I    -4.8   -1.0    0.3
H    -1.6   -4.0    2.3
I     1.6   -3.6    3.1
H    -0.9    4.4   -2.4
H    -3.2   -3.3    2.1
H     1.7    1.9    4.6
H     3.7    1.6    3.3
H    -1.0   -4.6   -2.4
N    -1.2   -4.1   -3.2
I     2.6   -3.4   -3.2
H    -1.5   -2.7    4.5
I    -4.2    3.5    0.3
N    -2.4   -3.0    4.0
C    -2.7   -3.7   -3.1
H    -3.1   -2.2    4.2
H    -1.5    5.1    2.3
H    -3.0   -3.1   -4.0
I     4.7    3.5    0.3
I     0.2   -6.0   -0.5
N    -1.1    5.0   -3.2
P     2.3    5.6   -0.0
H    -0.9    4.5   -4.0
H    -5.4    1.4   -2.6
H    -1.0   -4.6   -4.0
I    -0.4   -1.5   -6.0
H    -3.2    4.4   -3.1
H    -6.1    0.3   -1.6
H    -5.2    1.6    3.3
H    -3.3   -4.7   -3.1
H    -2.8   -3.8    4.4
I     1.7    5.5    3.1
H    -6.2    1.3    1.9
H    -0.6    5.9   -3.2
C    -2.6    5.3   -3.1
I     0.2    3.1   -6.0
C    -2.2    5.9    2.5
P     6.7    1.0   -0.0
N    -6.3    1.0   -2.3
P    -2.3    1.1    6.3
I    -0.4   -1.5    6.7
H    -3.1    5.7    2.1
P    -2.4    1.0   -6.3
H    -2.8    5.9   -2.2
C    -6.1    1.2    3.0
H     5.7   -3.3    2.1
I     6.1    1.2   -3.2
H    -6.2    0.1    3.3
I    -4.3   -5.5    0.3
I     2.7    5.7   -3.2
H     1.6   -6.1    3.3
H     6.1   -3.2   -2.2
I     4.6   -5.5    0.3
I     4.2   -0.9    5.8
H    -1.7    6.8    2.1
H    -6.9    1.8   -1.9
H    -2.7    5.2    4.4
I     0.3    3.1    6.7
P     2.2   -3.4    6.3
H     5.9   -2.2    4.2
H    -6.4   -0.3   -3.9
P     2.2   -3.4   -6.4
P    -6.7   -3.4   -0.0
I    -4.8   -0.9    5.8
I    -0.2    7.6   -0.5
N    -2.3    6.1    4.0
H    -2.9    5.9   -4.0
H     7.1   -2.2    2.1
H     2.0   -7.3   -1.9
C     6.7   -3.1    2.5
H     6.0   -3.1   -4.0
H    -1.4    6.3    4.5
C    -7.0    0.4   -3.5
I    -6.4   -3.4   -3.2
H     5.8    4.4   -3.1
C     6.3   -3.7   -3.1
I     7.3    0.9    3.1
H     5.7   -4.7   -3.1
I     4.1   -1.0   -6.8
I    -4.2    3.7    5.8
N     1.6   -7.1    3.6
N     6.5   -3.0    4.0
H     0.7   -7.5    3.3
N    -7.3    1.9    3.6
P    -2.3   -8.0   -0.0
I     4.8    3.7    5.8
H     5.8    5.7    2.1
I    -4.8   -1.0   -6.8
H     2.7   -7.8    1.9
H     1.6    1.8   -8.1
I     0.1   -6.0   -6.0
H     6.1   -3.8    4.4
H    -7.2    1.2   -4.2
H    -7.3    2.9    3.3
H    -8.0    0.0   -3.1
H    -3.0    6.9    4.2
H     1.6   -7.1    4.6
P    -6.6    5.6   -0.0
H     7.4   -4.0    2.3
N     2.5   -8.0   -2.3
H     1.8    1.3    8.4
H     3.5   -7.6   -2.6
I    -7.4   -3.6    3.1
P     2.3    5.7    6.3
H     6.2    5.9   -2.2
P     2.3    5.6   -6.4
H    -7.3    1.9    4.6
I    -4.2    3.6   -6.8
I     8.7   -1.5   -0.5
H    -1.6   -2.8   -8.2
C     2.7   -7.9    3.0
C     6.4    5.3   -3.1
I    -1.8   -8.1    3.1
H     3.7   -7.4    3.3
I     0.2   -5.9    6.7
I    -3.0   -7.8   -3.2
H    -8.2    1.5    3.3
I    -4.3   -5.4    5.8
H     1.6   -7.8   -4.2
I    -6.3    5.7   -3.2
I     4.7    3.6   -6.8
H     7.4   -2.7    4.5
H     2.6   -0.3    8.7
I     4.3    8.1    0.3
P     6.6    1.0   -6.3
I    -8.7    3.1   -0.5
I     4.7   -5.4    5.8
P     6.6    1.1    6.3
H     6.2    5.2    4.4
N     7.7   -4.1   -3.2
H    -3.1   -2.3   -8.5
H     2.8   -8.7   -1.6
H     7.5    5.1    2.3
I    -4.7    8.1    0.3
C     6.8    5.9    2.5
I    -9.2   -1.5   -0.5
C     2.0    0.5    9.2
H     6.1    5.9   -4.0
H     8.3   -3.2   -3.2
N     1.6    1.9   -9.1
C     1.8   -8.6   -3.5
H     8.1    4.4   -2.4
N    -2.5   -3.0   -8.7
H     8.0   -4.6   -2.4
H     0.7    1.5   -9.4
H    -2.9   -3.9   -8.2
H     1.0    0.1    9.5
H     0.9   -9.0   -3.1
I    -7.3    5.5    3.1
I    -0.3    7.5   -6.0
H    -2.9   -3.1    8.7
H     1.1    9.1   -3.1
H    -5.3   -7.4    3.3
I     9.2    3.1   -0.5
I    -1.7    0.9   -9.5
I    -4.3   -5.4   -6.8
H    -5.5   -7.6   -2.6
H     2.7    0.1   -9.4
H    -0.8    4.5    8.6
N     7.8    5.0   -3.2
H    -0.9   -4.5    8.6
P    -6.7   -3.4    6.3
N     6.6    6.1    4.0
H     2.7   -8.9    3.3
I     4.6   -5.4   -6.8
P    -6.8   -3.4   -6.4
H     2.6    8.7   -3.9
H     1.6    2.9   -9.4
H     3.0    9.4   -1.6
I    -2.8    1.3    9.5
H     6.0    6.9    4.2
H     7.9   -4.6   -4.0
H    -0.6   -3.1    9.5
H     8.0    4.5   -4.0
I    -0.3    7.6    6.7
H    -2.8    5.2   -8.2
H    -7.4   -6.1    3.3
C     2.8    1.1   -9.7
H     3.7    1.6   -9.3
H     2.8    9.2    3.3
H     7.2    6.8    2.1
H    -6.3   -7.8    1.9
H    -7.0   -7.3   -1.9
P    -2.1   10.1   -0.0
C     2.0    9.5   -3.5
I     1.5   -3.7   -9.5
H     9.7    1.5    3.3
I     2.6   -3.3    9.4
I     6.0   -7.8   -3.2
N    -1.2   -4.0    9.5
H     9.9    0.0   -3.1
P     6.6   -8.0   -0.0
H    -1.5    6.3   -8.2
P    -2.4   -7.9    6.3
C    -6.2   -7.9    3.0
H     2.4   -9.4   -3.9
P    -2.5   -8.0   -6.3
H     5.8   -2.3   -8.5
N    -6.4   -8.0   -2.3
I    -0.4  -10.5   -0.5
I     8.5   -1.5   -6.0
C    -2.6   -3.7    9.6
I    -1.6   10.0    3.1
H    -9.6   -3.2   -3.2
I    -8.8   -6.0   -0.5
H     8.4    5.9   -3.2
N     2.7   10.1   -2.3
N     2.7    1.1   10.3
P    -6.6    5.7    6.3
H     3.6    1.5   10.0
H     7.5    6.3    4.5
H    -6.4   -0.3    8.7
P    -6.7    5.6   -6.4
N    -1.1    5.1    9.5
H    -5.3    1.6   -9.3
I     4.1  -10.0    0.3
N    -2.4    6.0   -8.7
H    -6.2   -8.7   -1.6
N    -7.4   -7.1    3.6
H     2.9   10.3    1.9
C    -2.3   -3.2  -10.2
I     4.3    8.2    5.8
H    -2.8    6.0    8.7
H     1.5   -7.2   -8.1
H     6.1   -3.9   -8.2
I     9.1   -6.0   -0.5
H    -1.9   -2.3  -10.6
I     8.6   -1.5    6.7
H    -3.1    4.5    9.5
H    -9.8    4.4   -2.4
H     6.1   -3.1    8.7
I    -8.7    3.1   -6.0
H    -7.3    1.8   -8.1
C     2.9   10.2    3.0
H    -3.2   -4.6    9.5
I     1.6    5.4   -9.5
I    -4.7    8.2    5.8
H     0.8   10.6    3.3
I    -2.8   10.3   -3.2
I   -10.6    0.9    3.1
I    -4.9  -10.0    0.3
H    -7.2    1.3    8.4
H     2.1    1.8   10.8
H     2.2   10.8   -1.9
H    -9.9   -4.6   -2.4
H     2.7    1.2  -10.8
H   -10.8   -2.2    2.1
H    -1.6   -4.1  -10.3
P   -11.2    1.0   -0.0
I    -9.4   -1.5   -6.0
H    -0.5    5.9    9.5
H    -6.0    9.4   -1.6
N     6.5   -3.0   -8.7
H    -7.4   -7.1    4.6
I     7.2   -8.1    3.1
C    -2.5    5.4    9.6
H    -0.8    4.5   10.3
H     1.8   10.3   -4.2
H    -3.1    6.8   -8.5
H    -6.3    0.1   -9.4
H    -2.8   -3.1   10.5
H    11.0    1.8   -1.9
H    -0.9   -4.6   10.3
H     1.5   -6.2   -9.4
I     9.2    3.1   -6.0
I     6.1    1.3    9.5
N    10.6    1.9    3.6
H     7.4   -2.8   -8.2
I     2.7    5.7    9.4
H    -6.3   -8.9    3.3
I     4.2    8.1   -6.8
H     3.6   10.5   -2.6
I    -8.7    3.1    6.7
C    10.9    0.4   -3.5
H     2.9    0.4   11.0
N   -10.2   -4.1   -3.2
H    -5.3    1.5   10.0
H    -6.3    8.7   -3.9
H     6.2    5.2   -8.2
H   -10.5   -4.0    2.3
H    -6.1    9.2    3.3
H    -7.3   -7.8   -4.2
H    10.6    2.9    3.3
I    -9.3   -1.5    6.7
C    -7.0    0.5    9.2
H    10.7    1.2   -4.2
H    -9.9    4.5   -4.0
I    10.5   -3.6    3.1
C    -6.2    1.1   -9.7
H    -1.5    5.0  -10.3
H     1.7   -7.7    8.4
I    -4.7    8.1   -6.8
H    -3.3   -3.4  -10.6
I     8.8    7.6   -0.5
H    -9.5    5.9   -3.2
H    -1.9  -11.3    2.1
H    -8.3   -7.5    3.3
N     1.8   11.0    3.6
H   -10.0   -4.6   -4.0
P    11.2   -3.4   -0.0
N     1.5   -7.2   -9.1
N   -10.1    5.0   -3.2
C    -7.1   -8.6   -3.5
H   -10.5   -2.7    4.5
H    10.6    1.9    4.6
I     9.2    3.1    6.7
I    -6.3   -3.3    9.4
H   -10.4    5.1    2.3
H     3.8   10.7    3.3
N    -7.3    1.9   -9.1
N    11.6    1.0   -2.3
I    -9.1    7.6   -0.5
C   -11.2   -3.1    2.5
C    -2.2    5.8  -10.2
H    11.8    0.3   -1.6
H    11.7    1.3    1.9
I     7.2    0.9   -9.5
H     1.8   11.0    4.6
C     6.3   -3.7    9.6
H    -5.3   10.5   -2.6
H     5.8    4.5    9.5
H     5.7   -4.6    9.5
H    -6.5   -9.4   -3.9
N    -6.2   10.1   -2.3
P     6.6   -7.9    6.3
H     0.6   -7.6   -9.4
P     6.5   -8.0   -6.3
I     0.4   12.1   -0.5
N    -6.3    1.1   10.3
P    -2.3   10.1   -6.3
H    -6.1   10.3    1.9
H    11.7    0.1    3.3
H    11.5   -0.3   -3.9
I    -0.5  -10.6   -6.0
P    -2.2   10.2    6.3
P     6.8   10.1   -0.0
C    11.8    1.2    3.0
H     6.2    6.0    8.7
I     4.1   -9.9    5.8
H    -7.3    2.9   -9.4
I    -0.2   -1.4   12.2
I    -8.8   -6.0   -6.0
C    -6.0   10.2    3.0
C    -6.9    9.5   -3.5
H    -5.1   10.7    3.3
I   -11.8    1.2   -3.2
I    10.6    5.5    3.1
H     5.9    6.8   -8.5
H    -2.7    5.9   10.5
H    -7.9    0.1    9.5
I     9.1   -6.0   -6.0
H    -3.2  -11.2    4.2
I     6.2   10.3   -3.2
N   -11.4   -3.0    4.0
H    -7.9    9.1   -3.1
H    -3.2    5.6  -10.6
N     6.6    6.0   -8.7
I    11.5   -3.4   -3.2
H   -11.8   -3.2   -2.2
I    -0.4  -10.5    6.7
H     5.7   -3.4  -10.6
H     3.6   -7.5   -9.3
I    -4.9   -9.9    5.8
H    -8.1   -9.0   -3.1
H    -6.2    1.2  -10.8
H     6.1   -3.1   10.5
I    -8.8   -5.9    6.7
C     6.6   -3.2  -10.2
H     1.8   12.0    3.3
I    -2.9   -7.8    9.5
P    11.3    5.6   -0.0
I     0.3    3.1   12.2
H    -6.0    0.4   11.0
H    -8.3    1.5   -9.4
H     8.0   -4.5    8.6
C   -11.6   -3.7   -3.1
