         400
 sphere cut out from bulk 
I    -0.5   -0.0    0.8
H     2.5   -0.5    0.1
H     0.5   -2.0   -1.6
H    -1.2   -1.9   -1.7
C    -0.4   -2.4   -2.0
H     2.4    0.6    2.3
C     3.3   -0.1    0.5
P    -1.1    3.0    1.4
H    -1.8   -1.1    2.7
H     3.4    1.0    0.2
N     3.2    0.0    2.0
H    -0.4   -3.5   -1.6
H     3.1   -1.0    2.4
H     0.1   -2.5    3.2
H    -0.1   -1.5   -3.9
N    -0.2   -2.5   -3.5
H     4.2   -0.6    0.3
I    -0.8    4.0   -1.5
N    -1.9   -1.8    3.5
H    -0.1   -1.2    4.4
C    -0.5   -2.1    4.1
I     1.4    3.0    3.3
H    -2.3   -2.7    3.2
H     4.0    0.5    2.5
I     3.5   -2.5   -2.2
H     0.6   -3.1   -3.7
H    -1.1   -3.0   -3.9
I    -3.6    1.7    3.2
H    -2.5   -1.4    4.3
I    -0.0    0.6   -5.2
H    -5.4   -0.6    0.3
H     2.9   -0.0   -4.7
H    -0.6   -2.8    4.9
I     3.0   -3.1    3.7
I     4.1    4.1    0.0
P    -1.0    3.6   -4.6
H    -5.6    0.5    2.5
I    -2.6   -5.1    2.7
H    -6.2    1.0    0.2
C    -6.3   -0.1    0.5
I    -4.1    2.6   -4.1
H    -4.3    0.2   -4.6
H     4.8   -1.4   -4.2
H    -4.8   -1.4   -4.2
H     0.5    2.9    5.8
C     3.5   -0.4   -5.5
H    -1.9    2.7    5.7
I    -2.3    5.6    2.7
N    -6.4    0.0    2.0
H     3.1   -1.3   -5.9
I    -1.1   -6.6   -1.5
N    -4.7   -0.7   -5.0
I    -5.6    4.1    0.0
I    -3.1   -4.2   -4.6
H    -1.4    4.3    5.3
P     4.2    4.6    3.1
I    -6.2   -2.5   -2.2
N     4.9   -0.7   -5.0
H     5.3    0.2   -4.6
H    -6.5   -1.0    2.4
I     6.0    1.7    3.2
I     1.6   -0.2    7.0
H    -4.1   -1.1   -5.7
H    -7.2   -0.5    0.1
C    -1.5    3.6    6.1
I     1.8    5.1   -4.8
H     3.6    0.3   -6.3
P     4.4    5.2   -2.8
N    -0.1    3.3    6.6
I     5.6    2.6   -4.1
H    -0.2    7.2   -1.6
P     4.1   -5.5   -2.8
I     1.6   -5.5   -4.8
I     3.8   -6.5    0.0
H    -7.2    0.6    2.3
P    -5.4    4.6    3.1
I    -3.4   -1.5    6.8
H    -0.2    2.6    7.4
P    -5.3    5.2   -2.8
P     4.0   -6.1    3.1
P    -1.4   -7.7    1.4
H     5.5   -1.1   -5.7
H     0.3    4.2    7.0
H    -6.7   -0.0   -4.7
I    -6.6   -3.1    3.7
C    -6.1   -0.4   -5.5
H    -2.1    4.0    6.9
P    -5.5   -5.5   -2.8
H     7.8   -1.1    2.7
P     3.4   -3.1    7.0
I     1.1   -7.6    3.3
I    -2.8    6.5   -4.6
H     7.3   -2.7    3.2
H    -1.6   -6.4    5.3
H     7.1   -1.4    4.3
C    -0.1    8.2   -2.0
P    -0.4    0.6   -8.5
H     0.9    7.6   -3.7
P    -1.3   -7.1   -4.6
H     3.6    1.0    7.7
I     0.3   -4.1    7.5
N     7.7   -1.8    3.5
H    -0.8    7.7   -3.9
H    -6.0    0.3   -6.3
I    -1.3    3.6   -7.9
I    -5.8   -6.5    0.0
H     8.4   -1.9   -1.7
H     0.3    8.2    3.2
I     1.4   -2.3   -8.4
H    -2.1    8.0    3.2
P    -5.6   -6.1    3.1
N     0.0    8.2   -3.5
H     0.8    8.7   -1.6
H    -6.6   -1.3   -5.9
P    -0.9   -1.5    8.7
I    -3.2   -1.0   -8.3
H     4.6    3.8   -6.7
H    -1.0    8.8   -1.7
I     3.3    7.6    3.7
H    -4.4    0.9    7.8
I     6.6   -4.2   -4.6
I     7.1   -5.1    2.7
P     8.5    3.0    1.4
I     4.6    4.6    6.4
I     9.2   -0.0    0.8
H    -5.0    3.8   -6.7
H    -0.4    7.8    4.9
H     4.5    2.4    7.7
I     3.7    8.2   -2.2
N     4.4    1.5    8.1
I     6.2   -1.5    6.8
I    -8.2    3.0    3.3
I    -5.1    4.6    6.4
H     2.8    5.3   -7.3
H     2.5   -5.4   -7.3
H    -9.1   -2.0   -1.6
I     2.7    1.6   -8.9
H     5.2    0.9    7.8
C    -0.3    8.6    4.1
C    -1.7   -7.1    6.1
H     0.0   -6.5    7.0
H    -5.1    2.4    7.7
I     7.3    5.6    2.7
I    -1.6    1.5    9.4
N    -1.6    8.9    3.5
H     0.2   -7.8    5.8
N    -5.2    1.5    8.1
H     3.0    4.0   -8.4
I     8.8    4.0   -1.5
C     9.3   -2.4   -2.0
H    -0.6   -3.5   -9.1
I     4.3   -6.1    6.4
H    -6.1    1.0    7.7
H     8.6   -3.0   -3.9
H    -2.3   -6.7    6.9
P    -6.3   -3.1    7.0
H     0.1    9.1   -3.9
N    -0.4   -7.4    6.6
H     7.7    2.7    5.7
I     0.6    6.6    7.5
H     9.2   -3.5   -1.6
H    -4.7   -5.2   -7.1
C     4.7    4.6   -7.5
N     3.4    4.9   -8.0
H    -4.5    5.5   -7.1
I    -4.3   -8.1   -4.1
H    -2.2   -8.0    5.7
H    -1.6    9.6    2.7
C    -4.9    4.6   -7.5
H     4.9   -5.2   -7.1
I   -10.1   -0.0    0.8
H    -2.2   -3.4   -9.3
C     9.1   -2.1    4.1
H     3.2   -9.7    0.2
H    -9.0   -3.1   -3.7
I    -3.8   -9.0    3.2
H    -4.3    4.2   -8.3
I    -5.3   -6.1    6.4
N     9.4   -2.5   -3.5
I    -5.9    8.2   -2.2
N     3.1   -5.8   -8.0
H     9.5   -1.5   -3.9
P     8.6    3.6   -4.6
H     5.2    5.5   -7.1
H    -9.6   -2.5    3.2
N    -1.4   -4.0   -9.6
H    -2.3    9.3    4.3
I     6.8    6.5   -4.6
H    10.2   -2.0   -1.6
C   -10.0   -2.4   -2.0
I    -7.8    5.1   -4.8
H     0.2    9.5    4.4
H     2.7   10.1    0.1
I     6.4   -1.0   -8.3
H    -1.5   -4.9   -9.1
H     9.7   -2.5    3.2
H     4.4   -6.8   -6.7
I     5.3   -8.1   -4.1
I    -6.3    7.6    3.7
H     3.4    9.7    2.4
H     2.1  -10.1    2.3
H     9.5   -1.2    4.4
H     9.0   -2.8    4.9
H    -9.7   -1.5   -3.9
C     4.3    1.5    9.6
H     3.4    2.1    9.8
I    -8.1   -0.2    7.0
C     4.5   -6.1   -7.5
I    -0.2   10.6    0.8
H     3.2   -5.1   -8.8
H     8.2    4.3    5.3
I    -1.6   -7.1   -7.9
N    -9.8   -2.5   -3.5
H    -9.7   -1.2    4.4
H     5.3    4.2   -8.3
I    -0.7  -10.7    0.8
H   -10.1   -3.5   -1.6
C     8.1    3.6    6.1
H     4.2    0.5   10.0
H    -1.3    5.7   -9.1
I    -8.0   -5.5   -4.8
I     9.6    0.6   -5.2
I     8.5   -6.6   -1.5
H    -5.3   -6.8   -6.7
P     3.6    7.6    7.0
H    -0.5   -8.1    7.4
P     3.9   -1.0  -10.2
C    -5.2   -6.1   -7.5
I    -9.7    0.6   -5.2
H     7.6    4.0    6.9
H     3.4    5.6   -8.8
H     4.5   10.0    0.3
I     3.5   -2.6   10.1
H     2.7   -6.7   -8.4
C    -5.4    1.5    9.6
I     5.8   -9.0    3.2
C   -10.2   -2.1    4.1
H    -4.5    2.0   10.0
H    -4.6    9.3   -4.2
C     3.1  -10.7    0.5
H     3.8  -10.2    2.5
H   -10.9   -1.9   -1.7
C     3.6   10.6    0.5
H    -9.1    2.9    5.8
P   -10.8    3.0    1.4
N     3.0  -10.7    2.0
H    -5.1   10.0    0.3
I   -10.5    4.0   -1.5
I    -0.3  -10.1   -5.2
N    -6.3    4.9   -8.0
H    10.2   -3.1   -3.7
H    -6.9    5.3   -7.3
H     5.1    9.3   -4.2
H    -5.5    0.5   10.0
P     8.2   -7.7    1.4
N     3.5   10.7    2.0
I    -6.9    1.6   -8.9
H     2.2  -11.2    0.1
H     5.2    2.0   10.0
H    -6.7    4.0   -8.4
H     7.6    8.0    3.2
H     8.0   -6.4    5.3
H    -4.6   -6.5   -8.3
H     3.3    9.3   -5.9
H    -7.1   -5.4   -7.3
I    -0.5    0.1  -11.6
H    -0.3    7.1   -9.1
H    -6.5   -9.7    0.2
H   -10.3   -2.8    4.9
N    -1.2    6.7   -9.6
H     5.1   -6.5   -8.3
P    -5.7   -1.0  -10.2
H   -10.7   -3.0   -3.9
H     2.6   11.2    2.3
H    -3.9    9.6   -5.7
H    -6.3    9.7    2.4
C    -1.3   -4.0  -11.0
H   -11.4   -1.1    2.7
I    -3.2    9.1    6.8
H    -6.3    2.1    9.8
N    -6.5   -5.8   -8.0
H    -1.2   -3.0  -11.4
P     8.4   -7.1   -4.6
I    -8.5   -7.6    3.3
I    11.0    3.0    3.3
I    -1.2   -2.5   11.6
H    -2.0    7.2   -9.3
P    -6.0    7.6    7.0
H     2.7  -10.7   -4.7
I    -8.2   -2.3   -8.4
I     8.3    3.6   -7.9
H     9.4    7.2   -1.6
H     4.0  -11.3    0.3
N    -4.5    9.9   -5.0
I     1.7    8.4   -8.4
N     9.5    3.3    6.6
H    -5.8  -10.2    2.5
H     4.2   -8.2    7.7
H    10.1    2.9    5.8
H    -6.4   -5.1   -8.8
H     7.3   -6.7    6.9
H     3.2   10.7   -4.7
H    12.1   -0.5    0.1
I    -6.1   -2.6   10.1
P   -10.6    3.6   -4.6
H    -6.2    5.6   -8.8
H     4.3   11.1    2.5
N   -11.5   -1.8    3.5
H    -8.8    7.6   -3.7
H    -0.4   -4.6  -11.3
H     3.7   11.6    0.2
H     2.9  -11.6    2.4
N    -9.8    3.3    6.6
C     7.9   -7.1    6.1
C    -6.0   10.6    0.5
C     3.8   10.3   -5.5
H    12.0    0.6    2.3
N     5.1    9.9   -5.0
H     9.4    2.6    7.4
H    -2.1  -11.8    2.7
H    -6.9   10.1    0.1
H    -9.8    7.2   -1.6
H     7.4   -8.0    5.7
H     8.8    7.7   -3.9
H     7.4   -3.4   -9.3
H    -4.6  -10.5   -4.6
H    -0.8    3.4   11.9
H    -9.3    4.2    7.0
I     0.2   11.3   -5.2
I     4.5   -4.0  -10.8
P     8.7   -1.5    8.7
H     8.6    8.8   -1.7
I     8.1    1.5    9.4
H    -4.1   10.8   -4.6
N     8.0    8.9    3.5
H    -2.6    3.5   11.7
H    -5.4   -8.2    7.7
N    -6.2   10.7    2.0
H    -2.2   -4.5  -11.4
H    -8.8    8.7   -1.6
H     5.0  -10.5   -4.6
P     9.3    0.6   -8.5
H     5.8    9.6   -5.7
H    -9.8    2.6    7.4
C    -6.5  -10.7    0.5
H     3.4  -10.3   -6.3
H    -5.3   11.1    2.5
H     7.4    9.3    4.3
I    -5.1   -4.0  -10.8
H   -11.9   -2.7    3.2
I    -9.3   -4.1    7.5
H    -5.6  -11.3    0.3
H    -0.3  -11.8    4.4
I   -10.7   -6.6   -1.5
I     1.8   10.4    7.0
H    -6.3    9.3   -5.9
P    -0.6    9.2    8.7
H     0.3  -12.6   -1.6
C     9.5    8.2   -2.0
N    -6.7  -10.7    2.0
H     3.3   -9.6    7.7
H    -1.5  -12.5   -1.7
H    -6.9   -6.7   -8.4
H    -7.5  -10.1    2.3
C     3.3  -11.1   -5.5
H    -0.1    6.0  -11.3
H     9.9    4.2    7.0
H    -9.3    8.2    3.2
H     8.1    9.6    2.7
H    -0.4  -12.2   -3.9
H    -1.6    5.0   11.7
C    -1.7    3.9   12.1
C    -9.7    8.2   -2.0
C    -1.0    6.6  -11.0
N     4.1   -9.2    8.1
I     2.4   -9.1   -8.9
H   -12.1   -1.4    4.3
H   -11.0    4.3    5.3
C    13.0   -0.1    0.5
N    12.8    0.0    2.0
I     1.3  -10.9    7.0
H    12.7   -1.0    2.4
H     5.5   10.8   -4.6
C    -5.8   10.3   -5.5
H     9.2    7.8    4.9
N    -9.6    8.2   -3.5
H    -5.9   11.6    0.2
I     9.9   -4.1    7.5
I    -3.0    9.7   -8.3
H    13.1    1.0    0.2
I     6.5    9.1    6.8
P   -10.0    0.6   -8.5
H    -2.8  -12.1    4.3
N    -2.1  -12.4    3.5
N     9.7    8.2   -3.5
H    -1.9    6.1  -11.4
C   -11.1    3.6    6.1
H   -11.6    2.7    5.7
I    11.2   -0.2    7.0
P    -0.6  -10.1   -8.5
