         400
 sphere cut out from bulk 
P     0.0   -0.1   -0.3
I    -1.9    0.4    2.3
I     2.7    0.4    1.5
I    -0.2    3.1   -0.9
I     0.1   -3.2    0.4
I    -2.6   -0.5   -2.2
I     2.0   -0.5   -2.8
H    -3.4    2.3   -0.9
H     3.9   -1.7    0.2
H     1.0    3.1    2.8
H    -3.8   -2.0   -0.5
H     0.7   -3.2    3.0
H    -1.0    2.3    3.9
H    -0.7    3.2   -3.5
H    -1.0   -3.2   -3.4
H    -1.3   -2.3    4.0
H     4.2    2.3    0.9
H     0.7   -2.0   -4.5
H     1.3    2.2    4.3
H     3.1   -4.0    0.0
C     0.9    3.1    3.9
H    -3.6    3.3    1.3
H     3.5   -3.3   -1.6
H    -4.2   -2.7    1.0
H     1.1   -2.4    4.4
N     4.6   -2.4    0.1
H     1.3    2.3   -4.4
N     0.6   -3.2    4.0
N    -4.6   -2.4    0.1
C    -4.0    3.2   -0.7
N    -0.6    3.1    4.3
C     3.9   -3.6   -0.6
H     4.2    3.1   -1.4
H    -3.5    4.1   -1.0
N    -4.4    3.2    0.7
C    -0.9   -3.2    4.4
H    -5.3   -1.7    0.2
H    -0.7   -1.7   -5.2
H    -1.0    2.3   -4.9
H    -5.0    2.3    0.9
N    -0.6    3.2   -4.5
H    -1.0    3.9    3.8
N    -0.0   -2.4   -5.1
C    -0.6   -3.6   -4.4
H     4.9   -2.7    1.0
H     5.3   -2.0   -0.5
N     4.7    3.2    0.7
H     4.0    4.0    0.9
C     0.9    3.2   -4.9
H    -1.3   -4.1    4.0
H    -4.9    3.1   -1.4
H     1.3    4.0    4.3
C     5.1    3.2   -0.7
H     0.2   -4.3   -4.2
H     1.1   -4.1    4.4
H    -0.7    3.1    5.3
H     1.3    4.1   -4.5
P    -4.6   -0.1    4.2
P     4.6   -0.1    4.2
P    -0.0    6.2   -0.3
H     5.8    2.3   -0.9
H    -4.4   -4.4   -0.7
I     1.9   -0.5    6.0
C    -5.2   -3.6   -0.6
P    -0.0   -6.4   -0.3
H    -0.9   -3.2    5.5
H     4.7   -4.4   -0.7
H    -1.0    4.0   -4.9
I    -2.0    5.7    2.3
H    -1.4   -4.0   -5.0
I    -4.5   -3.2    3.5
H    -5.1    4.0    0.9
P    -4.6   -0.1   -4.7
H     5.5    3.3    1.3
P     4.6   -0.1   -4.7
I     2.6    5.8    1.7
H     0.3   -2.7   -6.0
I    -6.4    0.4    1.5
I     4.7   -3.2    3.5
H    -5.6   -3.3   -1.6
I    -1.8    0.4   -6.5
H     1.0    3.2   -6.0
I    -2.6   -6.0   -2.2
I     2.0   -6.0   -2.8
I     6.6   -0.5   -2.2
I     4.6    3.1   -4.3
I    -4.6    3.1   -4.3
H     5.6    4.1   -1.0
I     4.5    3.1    4.6
H    -6.0   -4.0    0.0
I    -4.6    3.1    4.6
I    -2.7   -0.5    6.8
I     2.6   -6.8    1.7
I    -2.6    6.6   -2.2
I     2.0    6.6   -2.8
I    -2.0   -6.9    2.3
I     7.2    0.4    2.3
I    -4.3   -3.2   -5.4
I    -7.1   -0.5   -2.8
I     2.7    0.4   -7.3
I     4.8   -3.2   -5.4
I    -0.2    3.1    7.8
P     0.0   -0.0    8.5
I     1.9   -5.9    6.0
H     3.6   -3.2    7.3
P     4.5    6.3    4.2
P     4.5   -6.3    4.2
P    -4.6    6.3    4.2
P    -4.6   -6.3    4.2
H    -3.7    3.2   -7.5
I    -6.6    5.8    1.7
I    -2.0    5.7   -6.6
H    -3.3    2.3    8.1
P     4.5   -6.3   -4.7
H     7.8   -2.3    4.0
P     4.5    6.3   -4.7
P    -4.6   -6.3   -4.7
I     0.1   -3.2   -8.5
P    -9.1   -0.1   -0.3
P    -4.6    6.3   -4.7
I     6.6   -6.0   -2.2
P     9.2   -0.1   -0.3
H     4.3    3.1    7.5
H     3.1    8.6    0.0
H    -7.8    2.2    4.3
H    -8.2    3.1    2.8
P     0.1    0.0   -9.2
H    -3.5   -8.5   -1.0
H     4.1    2.3   -7.9
I     1.9    6.7    6.0
H     8.1    2.3    3.9
H    -7.8    2.3   -4.4
I    -2.6   -5.9    6.7
H     0.2    8.3   -4.2
H    -3.5   -2.4    8.3
I    -7.2   -0.5    6.0
I     6.5   -0.5    6.8
H    -4.4    8.2   -0.7
I     7.1    5.7    2.3
H     8.2   -3.2   -3.4
I     0.1    9.4    0.4
H    -3.8   -3.2   -8.0
H    -4.8    3.1    7.5
H    -1.3    8.5    4.0
H     4.7    8.2   -0.7
H    -8.1   -2.4    4.4
H    -1.0   -8.7    3.8
I     9.0    3.1   -0.9
H    -8.5   -3.2    3.0
H     4.1   -8.6    0.9
I    -9.0   -3.2    0.4
I    -0.2   -9.5   -0.9
I    -6.6   -6.8    1.7
I     6.6    6.6   -2.2
H    -3.4    4.0    8.0
C    -4.0    3.1    8.2
H    -5.0    2.3   -7.9
C    -8.3    3.1    3.9
I     2.6    5.8   -7.3
H     3.2   -2.3    8.8
H     1.1    8.5    4.4
H     8.5    3.2   -3.5
H     1.3   -8.5   -4.5
C     3.7   -3.2    8.4
H     1.3   -8.6    4.3
H    -5.5   -3.2    7.3
H     7.8   -4.1    4.0
I    -7.1   -6.0   -2.8
H    -8.4   -2.0   -4.5
I     0.0   -3.2    9.2
I    -6.5    0.4   -7.3
I    -2.0   -6.9   -6.6
H     8.1    2.3   -4.9
H    -7.8    4.0    4.3
H     5.5    3.2   -7.5
N    -4.4    3.1   -8.1
H     4.1    4.0   -8.0
H     8.1    3.9    3.8
H     3.3   -2.3   -8.9
I     7.3    0.4   -6.5
I     9.3   -3.2    0.4
I    -9.3    3.1   -0.9
H     0.7    9.4    3.0
I    -2.6    6.7    6.7
C     3.9    9.0   -0.6
H    -3.5   -4.1    8.3
H    -7.8    4.1   -4.5
N     4.7    3.1   -8.1
C     8.3   -3.2    4.4
H     1.0   -9.5    2.8
H    -1.0   -8.6   -4.9
N    -8.6   -3.2    4.0
H    -1.0    9.3   -3.4
H     7.7   -4.0   -5.0
H    -5.1   -8.6    0.9
C    -0.6    9.0   -4.4
H     8.4   -1.7   -5.2
H    -0.7   -9.4   -3.5
N     8.6    3.1    4.3
H    -1.4    8.6   -5.0
H    -8.1   -4.1    4.4
H    -3.6   -9.3    1.3
N    -4.0   -3.2    8.7
H     3.5    9.3   -1.6
C    -8.3    3.2   -4.9
I    -7.1    6.6   -2.8
H     5.3   -3.2   -8.0
I     7.1   -6.9    2.3
C     5.1    3.1    8.2
H     5.8    2.3    8.1
N     8.6    3.2   -4.5
N     0.6    9.4    4.0
H     3.2   -4.1    8.8
C     8.5   -3.6   -4.4
H     5.6   -8.5   -1.0
H    -5.1    4.0   -8.0
I     2.6   -6.8   -7.3
C    -4.0   -9.4   -0.7
C     0.9   -9.5    3.9
H     5.6   -2.4    8.3
H     8.1    4.0   -4.9
H    -3.5   -2.4   -9.4
N    -3.9   -3.2   -9.0
I    -0.1    3.1   -9.9
H     3.3   -4.1   -8.9
C    -0.9    9.4    4.4
H     8.2   -3.2    5.5
N    -0.6   -9.5    4.3
C    -5.2    9.0   -0.6
N    -4.4   -9.4    0.7
H    -3.3    2.3   -9.7
H     8.5    3.1    5.3
N    -0.6   -9.4   -4.5
H     4.2   -9.5   -1.4
C    -5.4   -3.2    8.4
N     4.7   -9.4    0.7
H    -6.0    8.6    0.0
C     3.8   -3.2   -9.4
P    -0.0    6.2    8.6
H    -8.2    3.2   -6.0
N     5.1   -3.2    8.7
C     0.9   -9.4   -4.9
H     5.7    4.0    8.0
P    -0.0   -6.4    8.6
N     9.1   -2.4   -5.1
N    -9.1   -2.4   -5.1
C     5.1   -9.4   -0.7
H     9.8   -3.2    3.0
I     2.6    0.4   10.4
C    -3.9    3.1   -9.5
H    -4.9   -9.5   -1.4
H     5.6   -4.1    8.3
H    -4.2    9.9    1.0
H    -9.0   -4.3   -4.2
H     4.1    2.3    9.8
H    -3.5   -4.1   -9.4
H    -5.9   -2.3    8.8
H    -3.4  -10.3   -0.9
H    -0.7   -9.5    5.3
H     5.5   -9.3    1.3
H    -9.8    3.2   -3.5
N     5.2   -3.2   -9.0
H    -5.8   -2.3   -8.9
H    -0.9    9.4    5.5
H    10.1    3.1    2.8
H    -3.9   -3.2    9.7
H    -8.8   -2.7   -6.0
H    -5.6    9.3   -1.6
N     9.7   -3.2    4.0
I    -4.5    9.4    3.5
I     6.5   -5.9    6.7
H     9.9   -2.0   -4.5
H    -3.4    4.1   -9.7
N    -4.5    3.1    9.6
N    -9.7    3.1    4.3
I    -7.2   -5.9    6.0
P     9.1    6.2   -0.3
H    -1.0  -10.3    3.9
P     0.1    6.2   -9.2
I     4.7    9.4    3.5
N     4.6    3.1    9.6
P    -9.2    6.2   -0.3
H    -1.3   10.3    4.0
H     4.9    9.9    1.0
H   -10.2    2.3    3.9
H     9.3   -4.3   -4.2
P     9.1   -6.4   -0.3
H     4.2  -10.3    0.9
P     0.1   -6.4   -9.2
P    -9.2   -6.4   -0.3
H   -10.1   -3.2   -3.4
N     4.6   10.2    0.1
N    -4.6   10.2    0.1
H     1.1   10.2    4.4
N    -9.7    3.2   -4.5
C    10.0    3.1    3.9
H     1.0   -9.4   -6.0
H     4.0    3.9    9.7
H    -5.1    2.3    9.8
H     5.7   -2.4   -9.4
C    -9.7   -3.6   -4.4
C    -5.4   -3.2   -9.4
H    -3.8   10.6   -0.5
I    -2.6   -0.5  -11.0
H    -9.9   -1.7   -5.2
H     1.3  -10.3   -4.4
C     5.2    3.1   -9.5
H     1.3  -10.4    4.3
I   -11.1    0.4    2.3
I     7.2    5.7   -6.6
H    -5.9   -4.1    8.8
H    10.2   -2.4    4.4
I    -1.9    0.4   11.2
I    -6.5    5.8   -7.3
C   -10.0   -3.2    4.4
H    -3.7    3.2   10.3
N    -0.0   10.2   -5.1
I     4.6   -9.5   -4.3
I    -4.6   -9.5   -4.3
H    -1.0  -10.2   -4.9
H   -10.5   -2.3    4.0
H    -5.8   -4.1   -8.9
H    -5.0  -10.3    0.9
I     4.5   -9.5    4.6
I     6.5    6.7    6.7
H     4.4    3.1  -10.2
I    11.2   -0.5   -2.8
H     5.9    2.3   -9.7
H     3.7   -3.2  -10.4
I    -4.6   -9.5    4.6
H     5.3   -3.2    9.7
H     9.5   -2.7   -6.0
H   -10.2    2.3   -4.9
H    10.5    2.2    4.3
I    -7.2    6.7    6.0
H     0.7   10.6   -4.5
H   -10.2    3.9    3.8
H    -9.8    3.1    5.3
C    10.0    3.2   -4.9
H     3.9   10.9    0.2
H     0.3    9.9   -6.0
H    10.5    2.3   -4.4
H    -4.8    3.1  -10.2
H    -5.1    3.9    9.7
I    -4.3    9.4   -5.4
H     5.7   -4.1   -9.4
H     5.8  -10.3   -0.9
H    10.2   -4.1    4.4
H     5.3   10.6   -0.5
I     4.8    9.4   -5.4
I    -6.5   -6.8   -7.3
H   -10.0   -3.2    5.5
I   -11.7   -0.5   -2.2
H   -10.5   -4.1    4.0
I     2.0   -0.5  -11.8
I    11.8    0.4    1.5
I     7.2   -6.9   -6.6
H     5.8    4.1   -9.7
H   -10.2    4.0   -4.9
H    10.5    4.0    4.3
H     0.3   -2.7   11.7
H     5.4    3.2   10.3
H    10.5    4.1   -4.5
H    -5.3   10.9    0.2
H    -0.7   10.9   -5.2
H    10.1    3.2   -6.0
H     7.8    8.5    4.0
H     0.9    3.2   11.8
H    -3.4   -8.6    8.0
H    -5.5   -3.2  -10.4
I     2.5    5.8   10.5
I     9.0    3.1    7.8
I    -0.2   -9.5    7.8
H   -10.5   -4.0   -5.0
I    -6.5    0.4   10.4
H    -7.8   -8.5   -4.5
H    -7.8   -8.6    4.3
H    -3.5    8.5    8.3
H     3.6    9.4    7.3
H     4.1   -8.6   -8.0
H     8.1   -8.7    3.8
P    -9.1   -0.0    8.5
P     9.2   -0.0    8.5
I    -2.6   12.1   -2.2
H    -3.7   -9.4   -7.5
I     2.0   12.1   -2.8
P     0.0   12.5   -0.3
I    -1.9  -12.2    2.3
H    -8.1    8.5    4.4
I    -9.3    3.1    7.8
I    11.1   -0.5    6.0
H     7.7    8.6   -5.0
H     3.2    8.5    8.8
H    -0.8   -1.7   12.5
I    -2.0    5.7   11.1
I     2.7  -12.2    1.5
P     0.0  -12.7   -0.3
H    -0.8   -3.2  -12.2
I     0.1    9.4   -8.5
I     2.5   -6.8   10.5
