         400
 sphere cut out from bulk 
P     1.0   -0.6    1.5
I     0.8   -0.6   -1.8
I    -0.8    2.0    1.7
H    -1.8   -0.1   -2.1
I    -1.6   -2.5    1.5
H     1.3    2.7   -1.7
H    -3.4   -0.7   -0.4
N    -2.8    0.1   -2.2
H     0.1    3.6   -0.7
H    -3.0    1.1   -2.0
H     0.8   -3.4   -1.8
C     0.7    3.5   -1.7
C    -3.7   -0.8   -1.4
I     3.7    1.2    1.4
H    -0.0    3.5   -2.5
H    -3.4   -1.9   -1.7
H    -2.7   -1.1    3.3
H    -3.1   -0.0   -3.2
I     2.9   -3.2    1.2
H     4.2   -0.6   -1.6
H     2.0   -4.1   -1.0
N     1.4   -4.2   -1.8
H    -2.4    0.3    4.1
I     0.9   -0.8    4.6
N    -3.2   -0.3    3.9
H    -4.7   -0.6   -1.6
H    -3.9    0.1    3.2
P     1.1   -0.6   -5.0
I    -3.3    3.7   -1.8
N     1.5    4.8   -1.8
P    -3.4    3.9    1.4
H     0.0    2.8    4.5
H     1.9   -4.2   -2.7
H     2.2    4.9   -1.0
I    -0.7    2.0   -5.0
H     0.0   -5.4   -0.7
H     0.7   -4.1    3.7
C     5.3   -0.8   -1.4
H     2.1    3.6    3.7
I    -5.3    1.2    1.4
H     5.6   -0.7   -0.4
C     0.6   -5.4   -1.7
I    -1.6   -2.4   -5.0
H     2.0    4.8   -2.7
H     0.9    5.6   -1.8
H    -0.2   -5.5   -2.5
H     5.1    0.1    3.2
H     5.5   -1.9   -1.7
H     0.9    4.9    3.7
N     0.6    3.4    5.1
C     1.5    4.3    4.3
P    -3.5   -5.1    1.4
H     5.9    1.1   -2.0
C    -3.8   -0.9    5.1
I     3.8    1.2   -5.0
I    -3.4   -5.3   -1.8
N     6.1    0.1   -2.2
H     1.2    2.8    5.8
C     1.4   -4.7    4.3
I     2.9   -3.3   -4.9
H    -3.0   -1.4    5.7
I     3.0    5.8    1.2
H     1.2   -6.3   -1.7
H     4.4   -1.7    4.7
H     5.9   -0.0   -3.2
H     2.0   -4.1    5.0
H    -4.5   -1.7    4.7
H     2.0   -5.3    3.7
I    -1.5    6.5    1.5
I    -3.5    3.8    4.6
P     5.6    3.9    1.4
I    -6.0   -3.2    1.2
N     5.8   -0.3    3.9
I     5.7    3.7   -1.8
H     0.0    4.0    5.8
H    -4.3   -0.1    5.6
H     6.3   -1.1    3.3
P    -3.3    3.9   -5.0
I    -5.1    1.2   -5.0
I    -0.9   -7.0    1.7
H     2.1    4.9    5.0
C     5.2   -0.9    5.1
H     4.7   -0.1    5.6
H     7.1   -0.1   -2.1
N     0.5   -5.6    5.1
P     5.5   -5.1    1.4
H    -0.1   -5.0    5.8
H    -0.1   -6.2    4.5
H     6.5    0.3    4.1
H    -3.1   -1.4   -7.1
I    -3.6   -5.2    4.6
I     5.6   -5.3   -1.8
I     7.3   -2.5    1.5
P    -3.4   -5.1   -5.0
P     0.8   -0.8    7.8
H    -3.3    7.1   -1.7
P    -7.9   -0.6    1.5
I     5.4    3.8    4.6
H     1.8    3.3   -7.2
I     3.0    5.7   -4.9
H    -6.9   -4.1   -1.0
I    -1.8    1.0    7.9
H    -2.1    0.6   -7.9
H    -4.2   -0.3   -7.0
H    -7.6    2.7   -1.7
I     1.2   -0.5   -8.2
H     5.9   -1.4    5.7
I    -5.9    5.8    1.2
I    -8.1   -0.6   -1.8
H    -6.8    4.9   -1.0
H     0.4   -4.4   -7.2
I     2.6    1.9    7.8
I    -1.5    6.6   -5.0
I    -6.1   -3.3   -4.9
H     4.7   -0.3   -7.0
P     5.6    3.9   -5.0
H     1.1   -6.2    5.8
N    -3.6   -0.8   -7.7
H     0.5    4.6   -7.2
I     8.1    2.0    1.7
H    -6.8    3.6    3.7
I    -0.8   -6.9   -5.0
P     1.2    8.4    1.5
I     0.9    8.4   -1.8
H    -7.0   -4.2   -2.7
H     0.3    3.1   -8.1
I    -0.9   -3.6    7.8
I     3.6   -7.8    1.4
C     1.0    3.8   -7.7
H    -3.1   -7.9   -2.0
I     5.3   -5.2    4.6
H    -6.9    4.8   -2.7
N    -7.6   -4.2   -1.8
H    -3.3    8.3   -0.4
H    -2.6    7.9    3.3
C    -2.8    0.0   -8.5
I     3.4   -2.7    7.8
C    -3.5    8.1   -1.4
H    -8.2   -3.4   -1.8
P     5.5   -5.1   -5.0
N    -7.5    4.8   -1.8
C    -8.3    3.5   -1.7
I     7.3   -2.4   -5.0
H     5.6    7.1   -1.7
H    -1.7    8.8   -2.1
H     1.7   -5.7   -7.2
I    -8.0   -0.8    4.6
H     5.9   -1.4   -7.1
P    -7.8   -0.6   -5.0
P    -3.6    3.7    7.8
C     0.9   -5.2   -7.7
N     5.3   -0.8   -7.7
H    -4.2   -1.4   -8.3
H    -2.1   -0.6   -9.2
H    -6.9   -4.1    5.0
I     1.0    8.2    4.6
H    -6.9   -5.3    3.7
H    -8.8    3.6   -0.7
I    -0.8    5.4    7.8
H    -1.9   -9.1   -2.1
I    -5.4   -7.8    1.4
H     4.4    8.4   -1.6
C    -7.5    4.3    4.3
I    -6.0    5.7   -4.9
N    -2.9   -8.9   -2.2
H     4.7   -1.4   -8.3
I    -3.2    4.0   -8.2
H    -4.6    8.4   -1.6
N    -2.7    9.0   -2.2
P     0.9   -9.6    1.5
H    -6.8    4.9    5.0
I     0.7   -9.6   -1.8
H    -4.4    7.3    4.7
H    -3.4    0.7   -9.1
H     9.1    3.6   -0.7
H     2.2   -3.9   -8.7
H     4.5    7.3    4.7
I     8.2    2.0   -5.0
C     5.4    8.1   -1.4
H    -2.9    7.5    5.7
H    -8.2   -4.1    3.7
P     1.2    8.4   -5.0
H     8.9    3.5   -2.5
H    -2.5   -8.6    4.1
C    -7.6   -4.7    4.3
N    -3.0    8.6    3.9
I     9.8   -0.6   -1.8
H    -9.0    3.5   -2.5
I    -5.5   -2.7    7.8
I     7.4    6.5    1.5
H    -3.0    9.0   -3.2
H    -8.0    5.6   -1.8
H     5.8   -7.9   -2.0
H     0.1   -5.9   -8.1
I     3.7   -7.8   -5.0
H     5.7    8.3   -0.4
H    -7.7    2.8    5.8
H    -3.2   -9.0   -3.2
I    -9.8    2.0    1.7
N     1.6    4.4   -9.0
P    10.0   -0.6    1.5
P    -3.7   -5.3    7.8
H    -7.7   -6.3   -1.7
C    -8.4   -5.4   -1.7
I    -3.3   -5.0   -8.2
H    -8.1    4.9    3.7
P     5.4    3.7    7.8
C    -3.7    8.0    5.1
N     1.5   -4.6   -9.0
I    -6.3    1.9    7.8
H    -4.0   -8.8    3.2
H    -3.5   -9.7   -0.4
H     2.4    5.1   -8.7
H    -3.7    9.1    3.2
N    -8.3    3.4    5.1
C     9.6    3.5   -1.7
H    -8.9    2.8    4.5
H     6.8    0.6   -7.9
H    -2.3    9.3    4.1
H     2.1    3.6   -9.6
H     9.0    2.8    4.5
H    -8.9   -5.4   -0.7
H     0.8   -4.1   -9.6
H     9.7   -3.4   -1.8
H    -2.8    0.0   10.1
H     9.0   -5.4   -0.7
C     6.2    0.0   -8.5
H     4.1   -9.6   -1.6
H     1.2    4.2    9.6
N    -3.3   -9.3    3.9
C    -3.8   -9.8   -1.4
H    -2.9   10.0   -2.0
I    -5.2   -7.8   -5.0
H    -7.2    3.3   -7.2
H     5.0   -8.8    3.2
H     6.4    7.9    3.3
I     3.6    6.3    7.8
H     8.8   -5.5   -2.5
I     7.1    1.0    7.9
H     5.5    0.7   -9.1
H    -2.9    7.5   -7.1
I     5.7    4.0   -8.2
H     1.1   -4.7    9.6
H    10.3    2.7   -1.7
H     0.9    4.9   -9.6
I     8.0   -7.0    1.7
P     5.2   -5.3    7.8
I     0.8   -9.7    4.6
P     1.0   -9.5   -5.0
I     2.5   -7.1    7.8
H    -4.8   -9.6   -1.6
C     5.3    8.0    5.1
H    -9.1   -5.5   -2.5
H    -2.8  -10.0    3.3
I     9.9   -0.8    4.6
N     6.0   -8.9   -2.2
I     3.8   10.2    1.4
I   -10.6   -2.5    1.5
H   -10.8   -0.1   -2.1
H     5.2    9.1    3.2
I    -9.7    2.0   -5.0
I    -0.7   10.9    1.7
C     9.5   -5.4   -1.7
I     5.6   -5.0   -8.2
H     5.4   -9.7   -0.4
H     2.0   -5.3   -9.6
I     0.9   -1.0   11.0
H     9.7   -4.1    3.7
N     5.9    8.6    3.9
H     5.8   -9.0   -3.2
I     7.4    6.6   -5.0
C     5.2   -9.8   -1.4
H     4.1   -1.3   10.3
H     6.0    7.5    5.7
N     6.2    9.0   -2.2
P    10.0   -0.6   -5.0
H     6.0    9.0   -3.2
H    -4.1    8.8    5.6
P    -8.1   -0.8    7.8
N    10.3   -4.2   -1.8
I    -7.8   -0.5   -8.2
P     1.0    8.1    7.8
H    -8.9    4.0    5.8
N    -8.4   -5.6    5.1
H     0.8    2.4   11.1
N     9.6    3.4    5.1
I    -1.9   -8.0    7.9
H     9.0    4.0    5.8
I    -5.4    6.3    7.8
H     6.8   -0.6   -9.2
P     1.3   -0.4  -11.4
H    -4.8   -1.3   10.3
H     9.8    5.6   -1.8
I    -5.2   10.2    1.4
N    -3.3    0.0   11.0
H     6.4   -8.6    4.1
H     1.2   -3.6   10.8
P    -7.8    8.4    1.5
H     4.8    8.8    5.6
H    -7.8   -6.2    5.8
N     1.4    4.3   10.6
H    -3.6  -10.8   -1.7
H     9.8    4.9    3.7
H    -4.4   -9.1    5.6
N     5.7   -9.3    3.9
N    10.4    4.8   -1.8
H     7.3    8.8   -2.1
N     1.3   -4.6   10.6
H     4.6   -9.1    5.6
H    -6.7   -3.9   -8.7
H     7.0   -9.1   -2.1
H    -7.3   -5.7   -7.2
H    -2.3   -8.3   -7.9
I    -1.7  -11.5    1.5
H     8.9   -5.0    5.8
H     8.9   -6.2    4.5
N    -3.5    8.1   -7.7
H    -3.9    0.9   11.0
H     2.5    4.1   10.7
C    -7.9    3.8   -7.7
I    -8.0    8.4   -1.8
I     8.0   -3.6    7.8
I    -1.2    1.5  -11.6
I     8.1   -6.9   -5.0
H    11.0   -4.1   -1.0
I    -0.6   -3.0  -11.4
C    -3.9   -9.9    5.1
H    -9.0   -5.0    5.8
H     1.5   11.6   -1.7
H    -0.4    3.6   11.2
H    -3.5   -2.1   11.1
H     6.2    0.0   10.1
H    -9.0   -6.2    4.5
I     1.3    8.5   -8.2
H     6.1   10.0   -2.0
H    -4.1    7.5   -8.3
C     0.6    3.4   11.4
H    -4.1    8.7   -7.0
H     6.0    7.5   -7.1
H    10.9   -4.2   -2.7
C    -4.1   -1.2   11.2
I   -10.6   -2.4   -5.0
I     4.0   10.1   -5.0
H    -8.4    4.6   -7.2
H     2.3   -4.8   10.7
H    -8.5   -4.4   -7.2
N   -11.8    0.1   -2.2
I     3.2    2.2  -11.4
H    10.2    2.8    5.8
I     3.9   -2.3  -11.1
H    -6.6    5.1   -8.7
C    10.4    4.3    4.3
H    10.2   -6.3   -1.7
H    -2.6    0.1   11.8
I    -0.6   11.0   -5.0
H   -11.4    0.3    4.1
N     9.5   -5.6    5.1
C    10.3   -4.7    4.3
H   -11.6   -1.1    3.3
H     6.6    9.3    4.1
H     5.1    0.9   11.0
H     1.3    5.3   10.8
H   -11.9    1.1   -2.0
H    11.1    4.9   -1.0
H     4.8    7.5   -8.3
H     4.8    8.7   -7.0
H    11.1    3.6    3.7
C     5.0   -9.9    5.1
C     4.8   -1.2   11.2
I    -9.9   -7.0    1.7
H     6.1  -10.0    3.3
H     5.4  -10.8   -1.7
H    -3.1  -10.4    5.7
H    -8.7    3.1   -8.1
I    -3.9    3.6   11.0
H    11.0    4.8   -2.7
H    -6.8    3.6   -9.6
I    -7.9    8.2    4.6
C    -8.1   -5.2   -7.7
I    -6.4   -7.1    7.8
I    -5.0   10.1   -5.0
I    11.9   -3.2    1.2
N    -7.3    4.4   -9.0
H   -12.3   -0.7   -0.4
N     5.6    0.0   11.0
I   -10.4    6.5    1.5
H    -4.3   -9.2   -7.0
H     4.3  -10.6    4.7
N     5.4    8.1   -7.7
H   -12.0   -0.0   -3.2
H    -0.6   -5.3   11.2
I    -5.1   -2.3  -11.1
H     0.7  -12.3   -1.8
P    -3.1    4.1  -11.4
P    -7.7    8.4   -5.0
I     8.1    5.4    7.8
H     4.6   -9.2   -7.0
N    -7.4   -4.6   -9.0
I    -1.8  -11.3   -5.0
H    -4.7  -10.6    4.7
