         400
 sphere cut out from bulk 
H     0.4    2.1    0.0
H    -0.7    2.0   -1.2
H    -1.3    2.1    0.4
I     2.4    0.7    0.6
N    -0.5    2.5   -0.3
I    -2.8    0.8    1.8
H     0.1   -3.4    0.4
H    -0.7   -3.3   -1.2
I    -1.4    0.8   -3.2
H    -1.7   -3.4    0.2
C    -0.8   -3.7   -0.2
C    -0.6    4.0   -0.4
H     3.9    0.7   -1.5
H     0.3    4.3   -1.1
H    -0.4    4.4    0.6
H    -3.8    0.9   -2.3
H     0.2    1.7    4.3
I     1.2   -3.0    3.3
H    -1.5    4.3   -0.8
H     2.8    1.6   -3.5
P     3.8   -1.5    2.4
H    -2.1    0.9    4.3
I     1.0   -3.3   -3.6
N     4.4    1.3   -2.3
N    -0.8   -5.2   -0.3
H     0.0    0.2    5.3
C    -0.2    1.3    5.2
C     3.8    1.2   -3.6
H     4.5    2.3   -1.9
N    -4.8    1.3   -2.3
H     3.8    0.2   -3.9
P     4.0    3.0    2.4
I     4.3   -3.4   -0.0
H    -4.7    2.3   -1.9
H    -5.3    0.7   -1.5
N    -1.7    1.4    5.1
H     0.1   -5.6   -0.6
I     1.4    4.6    3.0
P    -0.9   -1.5   -5.4
H    -0.9   -5.7    0.7
I     3.4    0.8    4.7
H    -1.5   -5.6   -0.9
H    -2.0    2.4    5.0
I    -4.9   -3.4   -0.0
H     5.4    0.9   -2.3
I     1.5    4.4   -3.8
P    -5.4   -1.5    2.4
H     0.2    1.9    6.0
I    -3.4   -3.0    4.4
I    -4.6    4.4   -0.4
H     4.4    1.8   -4.3
I     4.6    4.4   -0.4
I     1.5    0.5   -6.3
P    -0.7    2.9   -5.7
H    -2.1    1.1    6.0
P    -5.2    3.0    2.4
I    -3.5   -3.0   -4.6
C    -5.4    1.2   -3.6
I     6.4    0.8    1.8
P     3.7   -4.7   -2.9
H    -5.4    0.2   -3.9
H    -4.8    1.8   -4.3
P    -0.8   -4.5    5.1
I    -6.8    0.7    0.6
I    -3.2    4.6    4.2
H     3.9   -5.5    1.8
I    -3.2    4.7   -4.9
I    -1.6   -6.7    2.7
I     2.0   -7.1   -1.3
H    -6.4    1.6   -3.5
I    -5.8    0.8    4.7
H    -0.4   -6.3   -4.1
H     3.7   -0.6    6.7
P    -5.5   -4.7   -2.9
I    -2.6    0.6   -7.3
H     3.5   -6.1    3.4
I     5.8   -3.0    4.4
H    -5.3   -5.5    1.8
N     4.1   -6.3    2.5
I    -3.1   -6.9   -2.2
I     5.7   -3.0   -4.6
P     3.9    6.2   -3.0
H    -4.1   -6.2    2.7
P    -0.6    6.3    4.8
H     7.9    2.1    0.4
H     3.0   -0.8   -7.6
H     7.5   -3.4    0.2
H     2.7   -7.6    1.7
H     2.9   -2.8    7.3
H     7.1    0.9    4.3
H     2.7    7.8    1.7
N    -5.1   -6.3    2.5
I     7.8    0.8   -3.2
H    -0.2   -5.5   -6.4
H    -1.9   -6.5   -5.1
I    -0.2   -3.1    7.9
C    -0.8   -6.8   -5.0
H     5.1   -6.2    2.7
H     4.0    7.0    2.6
H     3.8   -3.0   -7.1
N     3.8   -1.0    7.7
I     2.0    8.3   -1.3
I     6.0    4.6    4.2
I    -0.2   -3.4   -8.0
P    -5.3    6.2   -3.0
C     3.8   -7.6    1.9
H    -5.5   -0.6    6.7
I     0.1    4.6    7.4
H     8.5    2.0   -1.2
H     3.0   -0.5    8.2
H     7.7    4.3   -0.8
C     3.8    7.8    1.9
H     4.4    7.7    1.0
H    -0.8    7.5   -4.8
H     4.4   -7.7    1.0
I    -2.5    0.9    8.5
I     1.8   -6.9    5.4
C     3.8   -2.5    7.7
H    -4.6   -2.8    7.2
H    -5.7   -6.1    3.4
H     4.6   -2.8    7.2
N     8.7    2.5   -0.3
N    -0.1   -6.5   -6.2
I     6.0    4.7   -4.9
H    -4.5   -0.8   -7.8
H    -8.8    2.1    0.0
N     3.8   -1.2   -8.2
H     7.2    2.4    5.0
H    -4.8    7.7    1.0
H    -5.2    7.0    2.6
H     4.7   -0.8   -7.8
I    -8.0   -3.0    3.3
H    -4.8   -7.7    1.0
H     0.9   -6.8   -6.1
N     7.5    1.4    5.1
I    -1.5    8.6    2.7
H    -4.5   -0.6    8.0
C     8.4   -3.7   -0.2
H     4.2    5.0    6.6
H     8.5   -3.3   -1.2
H    -0.8   -7.9   -4.8
H     4.7   -0.6    8.0
I    -3.1    8.5   -2.2
C     3.8   -2.7   -8.1
H    -5.4   -3.0   -7.1
H     7.1    1.1    6.0
I     3.2   -7.0   -5.4
N    -5.4   -1.0    7.7
I     6.1   -6.9   -2.2
I     0.1    4.4   -8.4
C     8.6    4.0   -0.4
H     2.8   -3.0   -8.6
I    -8.2   -3.3   -3.6
H     7.7   -5.6   -0.9
C    -5.4   -7.6    1.9
I    -7.8    4.6    3.0
H     4.0   -8.4    2.6
H    -5.0    5.0    6.6
C    -5.4    7.8    1.9
I    -7.7    4.4   -3.8
H     3.0    4.8   -7.9
I     1.5    0.8    9.6
H    -9.1   -3.4    0.4
C    -5.4   -2.5    7.7
H     0.1    9.8   -0.6
H     9.6    2.1    0.0
H    -0.9    9.7    0.7
H    -6.2   -0.8   -7.6
H     8.8    4.4    0.6
N    -5.4   -1.2   -8.2
H     3.7   -0.8   -9.1
H     3.0    5.1    8.0
H     9.3   -3.4    0.4
N     8.4   -5.2   -0.3
I     6.7    0.6   -7.3
C    -0.8    8.6   -5.0
H    -0.6   -7.0   -7.0
H     0.1    1.6   -9.8
I    -7.7    0.5   -6.3
H    -1.5    9.8   -0.9
H    -8.9    4.3   -1.1
H     3.9   -2.8    8.8
H    -4.5    4.8   -7.5
H    -0.3    9.1   -4.1
I    -2.1   -7.0    6.8
H     8.3   -5.7    0.7
N    -9.7    2.5   -0.3
H    -6.3   -2.8    7.3
P     8.4   -1.5   -5.4
H    -2.1    0.9   -9.8
H    -9.0    1.7    4.3
H     4.7    4.8   -7.5
C     4.0    5.4    7.6
C    -5.4   -2.7   -8.1
H    -6.5   -7.6    1.7
H    -5.2   -8.4    2.6
I    -7.2   -7.1   -1.3
I     1.8    8.5    5.4
H    -9.9    2.0   -1.2
N    -0.8   10.2   -0.3
H    -6.5    7.8    1.7
H    -4.6   -3.1   -8.7
P    -0.6   -9.1    4.8
H     4.6   -3.1   -8.7
H    -6.2   -0.5    8.2
N     4.1    9.1    2.5
H    -1.9    8.9   -5.1
H    -4.1    9.2    2.7
P     3.9   -9.2   -3.0
H     9.5    4.3   -1.1
I     3.2    8.4   -5.4
C     9.0    1.3    5.2
H     9.4    1.7    4.3
H    -9.9   -3.3   -1.2
C     4.0    5.1   -8.2
H     3.5    9.3    3.4
H     0.0   -0.0  -10.5
C    -9.8    4.0   -0.4
P    -0.8   -1.3   10.4
H     3.4    7.3    6.9
I     7.6   -6.7    2.7
H    -9.6    4.4    0.6
H    -9.2    0.2    5.3
H     0.9    8.6   -6.1
P    -0.6    3.2   10.1
C   -10.0   -3.7   -0.2
H    -5.3   -2.8    8.8
H    -4.4    5.0    8.3
I    -6.0   -7.0   -5.4
H     9.2    0.2    5.3
C    -5.2    5.4    7.6
H   -10.5    2.1    0.4
I     6.1    8.5   -2.2
P     8.5    2.9   -5.7
C    -0.2    1.0  -10.6
H    -5.5   -0.8   -9.1
H    -9.1   -5.6   -0.6
N    -5.1    9.1    2.5
H    -0.2   -5.3    9.4
H     4.8    5.0    8.3
H     3.9    9.9    1.8
C    -9.4    1.3    5.2
P     8.4   -4.5    5.1
N    -0.1    8.9   -6.2
H     5.1    9.2    2.7
I     6.7    0.9    8.5
H     3.8    7.0   -7.3
H     9.3   -5.6   -0.6
N    -1.7    1.2  -10.7
N     4.0    6.8    7.6
H    -0.6    8.4   -7.0
P    -5.3   -9.2   -3.0
C    -5.2    5.1   -8.2
H     7.3   -6.5   -5.1
H    -9.0    1.9    6.0
I    -2.1    8.4    6.8
H    -0.4  -11.0    0.6
I    -7.2    8.3   -1.3
H    -4.2    7.2    7.3
H    -6.4   -3.0   -8.6
H    -0.6   -6.8    8.8
I   -10.6    0.8   -3.2
H    -6.2    4.8   -7.9
H     3.3   -8.1    6.9
H     4.1    4.7   -9.2
H     0.2  -11.1   -1.1
I     1.4  -10.7    3.0
H    -2.0    2.2  -10.8
H    -1.5  -11.1   -0.8
N   -10.0   -5.2   -0.3
H     9.4    1.9    6.0
I    10.4   -3.0    3.3
H    -6.2    5.1    8.0
N     4.0    6.6   -8.3
H    -5.3    9.9    1.8
I    10.2   -3.3   -3.6
H    -5.7    9.3    3.4
H     5.0    7.2    7.3
H   -10.9   -3.4    0.2
N    -5.2    6.8    7.6
I    -7.4   -6.9    5.4
C    -0.6  -11.4   -0.4
N    -0.1   -6.3    9.6
H    -5.4    7.0   -7.3
P   -10.1   -1.5   -5.4
H    -5.1    4.7   -9.2
H   -10.7    4.3   -0.8
H    -5.8    7.3    6.9
I    -6.0    8.4   -5.4
I    11.6    0.7    0.6
H     8.8   -6.3   -4.1
H   -10.1   -5.7    0.7
H     0.2    1.4  -11.6
P     3.8   10.7   -2.9
I     3.4    0.6  -11.2
C    -0.7   11.7   -0.2
H    -2.1    0.6  -11.5
H     0.9   -6.5    9.7
P     8.6    6.3    4.8
I     1.5  -11.0   -3.8
I    -2.2   -7.2   -9.0
H     3.8   -8.3   -7.3
H    -4.2   -8.2    7.3
P    -9.9    2.9   -5.7
P    -0.8   -4.8  -10.7
N    -5.2    6.6   -8.3
H    -4.2    7.0   -8.5
H    -0.2    9.9   -6.4
H     3.8    7.3    8.5
H     3.4    7.0   -9.0
I     7.7    8.6    2.7
C     8.4   -6.8   -5.0
I     4.6  -11.0   -0.4
I    -4.6  -11.0   -0.4
I    10.6    4.6    3.0
H     0.1   12.0    0.4
I    -3.2  -10.8    4.2
P    -0.8   10.8    5.1
H     5.0   -8.2    7.3
I     7.1   -7.0    6.8
I    -3.5   -2.8   11.2
H     5.0    7.0   -8.5
P   -10.0   -4.5    5.1
N     4.0   -8.5    7.6
H   -11.3    0.9    4.3
H    -1.7   12.0    0.2
N   -10.9    1.4    5.1
H     7.1    0.9   -9.8
H    -0.6   12.1   -1.2
H   -10.7   -5.6   -0.9
H    -5.9   -8.1    6.9
I    10.7    4.4   -3.8
H    -9.6   -6.3   -4.1
I   -12.0    0.8    1.8
I    -3.2  -10.7   -4.9
H     8.4    7.5   -4.8
P    -5.4   10.7   -2.9
I    -7.7    0.8    9.6
I    -2.1    8.2   -9.0
H    -0.6    8.6    8.8
H    -5.4   -8.3   -7.3
H     3.8   -8.1    8.5
H    -8.3   -6.8   -6.1
I     9.0   -3.1    7.9
H     9.0   -5.5   -6.4
I    10.7    0.5   -6.3
I    -3.5   -3.2  -11.5
H    -5.4    7.3    8.5
I    -7.4    8.5    5.4
I    -3.2    4.9   11.0
H   -11.2    2.4    5.0
H     7.7    9.8   -0.9
I     9.0   -3.4   -8.0
H     8.4   -7.9   -4.8
H     3.8    0.4   11.9
H     4.4    2.1   11.6
N    -5.2   -8.5    7.6
H     7.3    8.9   -5.1
H    12.0    1.6   -3.5
P    -9.8    6.3    4.8
P    -0.6    6.1  -11.0
I    -5.8    0.6  -11.2
H    -1.9   -6.3   10.8
H    -9.4   -5.5   -6.4
I    -9.1    4.6    7.4
I    -9.4   -3.1    7.9
I     1.1   -3.1   12.2
I     1.1   12.1   -3.6
H    -4.8    2.1   11.6
H     3.3   -8.4   -9.0
N     4.0   -8.8   -8.3
H    -4.2   -8.4   -8.5
I     9.3    4.6    7.4
I     4.3   12.0   -0.0
I    -1.4    1.0   12.6
C    -0.8   -6.6   10.9
I    -9.4   -3.4   -8.0
N     9.1   -6.5   -6.2
H     2.8    1.8   12.4
H    -5.9    7.0   -9.0
H     8.3    9.7    0.7
I     1.8   -7.2  -10.5
I     5.7   -2.8   11.2
I    -3.2    4.4  -11.7
H   -11.3    1.1    6.0
I     1.2   12.4    3.3
I     3.2   -6.8   10.5
C     3.8    1.5   12.3
I    -4.9   12.0   -0.0
H    -5.4   -8.1    8.5
I     7.1    8.4    6.8
I     1.5    4.6   12.0
N    -0.6  -12.9   -0.3
C     8.4    8.6   -5.0
N    -9.3   -6.5   -6.2
H     5.0   -8.4   -8.5
I   -10.8   -6.7    2.7
H     4.1  -10.4    6.6
I     1.2   -3.2  -12.6
I     6.0  -10.8    4.2
