         400
 sphere cut out from bulk 
P    -0.2   -0.1   -0.0
I     2.4   -0.6    1.8
I     1.8    0.4   -2.5
I    -0.1    3.1    0.7
I    -2.2   -0.6    2.4
I    -0.3   -3.2   -0.8
I    -2.7    0.5   -2.0
H     3.1    2.2    0.1
H     3.3   -2.4    0.3
H    -3.5   -2.3   -0.2
H    -1.4    2.2   -3.4
H    -3.7    2.2   -0.3
H     0.7   -3.2    3.0
H     0.4    3.1    3.2
C     3.5    3.1   -0.3
H    -0.9   -3.2   -3.3
H    -1.3   -2.3    4.0
H     3.5    3.1   -1.4
H     0.9    3.1   -3.7
N     3.8   -3.2   -0.2
H     1.1   -2.3   -4.3
H     3.1    4.0    0.1
H     3.7   -3.2   -1.2
H    -1.5    2.2    4.3
C    -3.9   -3.2    0.2
H    -3.9   -3.2    1.3
H     1.1   -2.3    4.5
N    -1.2    3.1   -4.0
N    -4.2    3.1    0.1
H     3.3   -4.0    0.3
H     0.8    2.2    4.7
C     0.6   -3.2    4.1
H    -4.1    3.1    1.1
N     0.4    3.1    4.3
H    -3.5   -4.1   -0.2
H    -1.4    3.9   -3.4
H    -3.7    3.9   -0.3
H    -1.3   -2.4   -4.7
N    -0.8   -3.2   -4.3
C     0.2    3.1   -4.6
N    -0.8   -3.2    4.5
H     0.3    2.2   -5.2
C    -1.1    3.1    4.7
C     0.6   -3.2   -4.7
N     5.0    3.1    0.1
H    -1.3   -4.0    4.0
H     5.4    2.2   -0.3
H    -1.9    3.1   -4.8
H     5.0    3.1    1.1
H    -1.5    4.0    4.3
H     1.1   -4.1   -4.3
C     5.2   -3.2    0.2
P     4.4   -0.1    4.3
H     5.7   -2.3   -0.2
H     0.8    3.9    4.7
P     4.3   -0.1   -4.4
H     1.1   -4.1    4.5
P    -0.2    6.2   -0.0
N    -5.4   -3.2   -0.2
H    -5.8   -2.4    0.3
H     5.3   -3.2    1.3
P    -0.2   -6.4   -0.0
H    -1.3   -4.1   -4.7
I     1.8    0.4    6.1
H    -0.9   -3.2    5.5
P    -4.8   -0.1    4.3
C    -5.7    3.1   -0.3
H    -5.5   -3.2   -1.2
H    -6.1    2.2    0.1
H     0.4    3.9   -5.2
I     4.3   -3.2   -3.7
I     4.5    3.1    3.6
I     1.8    5.8   -2.5
I     2.4   -5.8    1.8
I    -2.7    5.7   -1.9
P    -4.9   -0.1   -4.4
H    -1.1    3.1    5.8
H    -5.7    3.1   -1.4
H     0.7   -3.2   -5.8
I    -4.7    3.1    3.6
I    -2.2   -0.6   -6.3
I    -2.2   -5.8    2.5
H     5.4    3.9   -0.3
I     6.4    0.5   -2.0
I    -4.9   -3.2   -3.7
H     5.7   -4.1   -0.2
I    -6.8   -0.6    1.8
H    -5.9   -4.0    0.3
H    -6.1    4.0    0.1
I    -2.8    0.4    6.8
I     4.3   -3.2    5.0
I     2.3   -0.6   -7.0
I     2.4    6.8    1.8
I     7.0   -0.6    2.4
I     4.5    3.1   -5.1
I     1.8   -6.8   -2.5
I    -2.2    6.8    2.5
I    -4.7    3.1   -5.1
I    -4.9   -3.2    5.0
I    -2.7   -6.9   -1.9
I    -7.3    0.4   -2.5
H     3.3    3.0    7.4
I     1.8    5.7    6.2
I    -0.3   -3.2    8.0
P    -0.2   -0.0    8.7
P     4.4    6.2    4.3
I    -0.2    3.1   -8.2
P     4.3    6.3   -4.4
I     6.4    5.7   -1.9
H     7.8    2.2   -3.4
P    -0.3   -0.1   -8.8
P     4.4   -6.4    4.3
P     4.3   -6.4   -4.4
I    -2.2   -5.9   -6.3
P    -4.8    6.2    4.3
H     3.7   -3.1    7.5
P     9.0   -0.1   -0.0
H     7.6    2.2    4.3
H    -3.9   -3.2   -7.5
P    -4.8    6.3   -4.4
P    -4.8   -6.4    4.3
P    -4.8   -6.4   -4.4
I    -6.8   -5.8    1.8
H     3.0   -8.6    0.1
H    -3.5    8.5   -0.2
H     7.9   -2.3    4.0
H     3.3    8.6    0.3
H     7.3    3.1   -4.8
H     2.8    2.3   -8.5
I     6.4    0.4    6.8
P    -9.3   -0.1   -0.0
I     6.9   -0.6   -6.3
I    -2.8    5.8    6.8
H     7.8    3.9   -3.4
I     1.8   -6.9    6.2
H     3.2   -2.3   -8.5
I    -0.3    9.4   -0.8
I     7.0   -5.8    2.5
H    -1.4   -8.7   -3.4
I     8.9   -3.2   -0.8
I    -2.2    6.7   -6.3
H    -3.5   -2.2    8.5
H    -8.1   -2.3   -4.3
H     8.3   -3.2   -3.3
N     8.0    3.1   -4.0
H    -3.7   -8.7   -0.3
I     2.4   -5.9   -7.0
H     7.9   -2.4   -4.7
H    -8.4   -3.2    3.0
C     3.7    2.7    8.3
H    -8.1   -2.3    4.5
I    -0.1   -9.5    0.7
H     4.6    3.6   -7.6
H    -8.3    3.1   -3.7
H    -4.6    3.6   -7.6
H    -1.3    8.6    4.0
H     1.1    8.5   -4.3
H     4.5    2.0    8.2
H     7.6    4.0    4.3
I     9.1    3.1    0.7
I    -7.4    0.4    6.1
H     5.2   -3.2   -7.5
I     6.4   -6.9   -1.9
H    -4.7    2.0    8.2
I    -7.4    5.8   -2.5
H     1.1    8.5    4.5
H     2.9    2.4    9.0
I    -6.7    6.8    1.8
H     7.9   -4.0    4.0
H    -1.6   -8.6    4.3
I    -6.8   -0.6   -7.0
I    -9.3    3.1    0.7
I    -0.1    3.1    9.3
H    -8.3    2.2    4.7
H    -8.7    3.1    3.2
H    -5.5   -3.1    7.5
H     3.3   -2.3    9.0
H    -5.8    3.0    7.4
H    -1.3    8.5   -4.7
C     8.1    3.1    4.7
N     3.8   -3.1    8.6
H     0.8   -8.7    4.7
H     0.7    9.4    3.0
H    -3.6   -2.3   -9.0
N     8.4   -3.2   -4.3
I     2.4    6.7   -7.0
H     3.2   -4.0   -8.5
C    -4.0   -3.2   -8.6
H    -0.9    9.4   -3.3
C    -8.5   -3.2    4.1
N     8.4   -3.2    4.5
I    -0.4   -3.3   -9.5
H    -3.5   -4.0    8.5
H    -8.1   -4.1   -4.3
I    -2.8   -6.8    6.8
I     7.0    6.8    2.5
H     0.4   -9.5    3.2
I    -9.5   -3.2   -0.8
H     7.9   -4.1   -4.7
H     0.4   -8.7   -5.2
H    -8.1   -4.1    4.5
N     3.8    9.4   -0.2
C     3.5   -9.5   -0.3
H     3.5    4.6   -8.4
H     3.7    9.4   -1.2
N     3.7   -3.2   -8.9
C    -3.9    9.4    0.2
C     3.6    2.7   -9.2
H     3.4   -9.5   -1.4
H    -3.8    9.4    1.3
H     5.7    8.5   -0.2
C    -3.9   -3.1    8.9
N     4.2    3.9   -8.5
H     5.4   -8.7   -0.3
N    -8.8    3.1    4.3
H     0.9   -9.5   -3.7
C    -8.6   -3.2   -4.7
C     0.7    9.4    4.1
H    -4.1    4.3    8.4
H    -8.3    3.9    4.7
C    -5.5    2.7    8.3
I    -7.4   -6.8   -2.5
N    -0.8    9.4   -4.3
H     3.3   -4.0    9.0
H    -5.8    8.6    0.3
H     8.1    3.1    5.8
H     8.3   -3.2    5.5
N    -1.2   -9.5   -4.0
H     4.4    1.9   -9.3
N    -4.2   -9.5    0.1
N     0.4   -9.5    4.3
H    -8.8    2.2   -5.2
N    -0.8    9.4    4.5
H    -4.1   -9.5    1.1
H    -3.6   -4.1   -9.0
C     5.1   -3.2   -8.6
H     5.7   -2.2    8.5
C    -9.0    3.1   -4.6
C     0.6    9.4   -4.7
C     0.2   -9.5   -4.6
N    -5.4   -3.1    8.6
H    -6.1   -8.6    0.1
N    -5.0    3.9   -8.5
H    -4.8    1.9   -9.3
H     9.6    3.1    3.2
H    -5.9   -2.3   -8.5
C    -1.1   -9.5    4.7
P    -0.2    6.2    8.7
N     4.3    3.9    9.0
H     5.1    4.3    8.4
N     4.9   -9.5    0.1
P    -0.2   -6.4    8.7
C     5.2    9.4    0.2
H    -8.5   -3.2   -5.8
H     3.3   10.2    0.3
P    -0.3    6.2   -8.8
C     5.3   -3.1    8.9
H     5.6   -2.3   -9.0
N    -5.4    9.4   -0.2
H    -1.9   -9.5   -4.8
I     2.4   -0.5   10.5
H     5.0   -9.5    1.1
H     9.9   -3.2    3.0
H     3.0  -10.4    0.1
H    -3.5   10.3   -0.2
H     3.6    4.7    9.1
C     9.4    3.1   -4.6
H     5.3    9.4    1.3
H    -4.2    4.3   -9.1
N     9.5    3.1    4.3
H    -6.4    2.3   -8.5
P    -0.3   -6.4   -8.8
N    -4.9    3.9    9.0
H    -5.8   -2.3    9.0
N    -5.5   -3.2   -8.9
H    -0.9    9.4    5.5
H    -8.8    3.9   -5.2
H    -5.5    9.4   -1.2
P     9.0    6.2   -0.0
I     4.3    9.4   -3.7
I     6.4    5.8    6.8
H    -1.4  -10.4   -3.4
P     9.0   -6.4   -0.0
H     5.7   -4.0    8.5
H     9.5    2.2   -5.2
H    -3.8  -10.4   -0.3
C    -5.6    2.7   -9.2
I     6.9   -5.9   -6.3
H     3.2    3.0  -10.1
H     0.7    9.4   -5.8
H     3.6   -3.2  -10.0
C    -5.7   -9.5   -0.3
H   -10.1   -3.2   -3.3
H    -1.3   10.3    4.0
C     9.8   -3.2    4.1
H    -5.7    4.6   -8.4
I    -2.9    0.3  -10.7
I     4.5   -9.5    3.6
H    -5.9   -4.0   -8.5
H    10.1    3.1   -3.7
H    -3.8   -3.1   10.0
H    -6.3    2.4    9.0
I    -7.4    5.7    6.2
H    -1.1   -9.5    5.8
H    -5.7   -9.5   -1.4
H     1.1   10.3   -4.3
I    -4.7   -9.5    3.6
H     5.0    4.3   -9.1
I    -4.9    9.4   -3.7
P    -9.3    6.2   -0.0
H    10.0    2.2    4.7
I    11.0    0.4   -2.5
P    -9.4   -6.4   -0.0
H     1.1   10.3    4.5
H   -10.6    2.2   -3.4
C     9.8   -3.2   -4.7
H    -1.3   10.2   -4.7
H     5.6   -4.1   -9.0
H    10.3   -2.3   -4.3
H    -1.6  -10.4    4.3
N   -10.0   -3.2   -4.3
N   -10.0   -3.2    4.5
H     0.8  -10.4    4.7
I    -6.8   -5.9   -7.0
H    -5.8   -4.0    9.0
H   -10.4   -2.3    4.0
I    -2.1   -0.5   11.2
H    10.3   -2.3    4.5
I     4.3    9.4    5.0
I     1.7    0.4  -11.4
H    -4.5    3.7    9.9
I     6.9    6.7   -6.3
N   -10.4    3.1   -4.0
H     9.5    3.9   -5.2
I     6.4   -6.8    6.8
H     4.7    3.7    9.9
I   -11.4   -0.6    2.4
H     0.3  -10.5   -5.2
H    -5.6    4.7    9.1
C   -10.2    3.1    4.7
I     4.5   -9.5   -5.1
I    -4.9    9.4    5.0
H     5.4  -10.4   -0.3
H    10.0    3.9    4.7
H   -10.7    2.2    4.3
I    11.6   -0.6    1.8
H   -10.5   -2.4   -4.7
I    -4.7   -9.5   -5.1
H   -10.5    3.9   -3.4
H     5.7   10.3   -0.2
H     5.3   -3.1   10.0
H    -5.8   10.2    0.3
I    -6.8    6.7   -7.0
I    -7.4   -6.9    6.2
H    -5.6   -3.2  -10.0
H    10.3   -4.1   -4.3
H     9.9   -3.2   -5.8
H   -10.4   -4.0    4.0
H   -10.1   -3.2    5.5
H    10.3   -4.1    4.5
I   -11.9    0.5   -2.0
H     3.5   -8.0   -8.4
H    -6.1  -10.4    0.1
H    -5.9    3.0  -10.1
H     0.8   -3.2   11.7
H     7.8   -8.7   -3.4
H    -1.2    3.0  -11.7
H   -10.5   -4.1   -4.7
H   -10.3    3.1    5.8
H   -10.7    4.0    4.3
H     7.6   -8.6    4.3
I     2.5   -5.9   10.5
H     7.9    8.6    4.0
I    -0.2    9.4    8.0
I     2.4   12.0    1.8
H    12.2    2.2    0.1
I     8.9   -3.2    8.0
I     6.3    0.3  -10.7
H   -11.1    3.1   -4.8
P     8.9   -0.0    8.7
I    -2.2   12.0    2.4
I    -2.9    5.8  -10.7
P     8.8   -0.1   -8.8
H    -1.0   -3.2  -12.0
H    -8.1    8.5   -4.3
H    -4.1   -8.3    8.4
I    -6.7   -0.5   10.5
H     3.2    8.6   -8.5
P    -0.2   12.5   -0.0
H     3.3   -9.6    7.4
I    -2.7  -12.1   -2.0
H     0.5    2.2   12.3
I     9.0    3.1   -8.2
H     7.9    8.5   -4.7
I    10.9    0.4    6.1
H    -3.4    8.6    8.5
H    -8.1    8.5    4.5
I    -0.2   -9.5   -8.2
I     1.8  -12.2   -2.5
H     4.6   -9.0   -7.6
