         400
 sphere cut out from bulk 
H    -1.7    1.6    0.7
H    -0.3    2.4   -0.0
I     2.0   -1.7    0.4
H     0.2    1.5    2.2
I    -2.5   -1.1   -0.3
C    -1.1    2.4    0.7
H    -0.6   -0.4   -2.8
N    -0.4    2.4    2.1
I     1.3    2.0   -2.4
P    -0.6   -3.2    1.3
H    -1.7    3.4    0.7
H    -1.1    2.4    2.8
H     0.2    3.2    2.2
C    -0.8   -1.0   -3.7
P     3.8    0.4   -1.3
H    -0.1   -2.8   -3.0
I    -0.8   -1.2    3.9
H    -1.9   -1.3   -3.7
N     0.0   -2.2   -3.8
H     1.0   -1.9   -3.8
H    -0.6   -0.3   -4.6
I     3.9    2.2    1.4
H     2.5   -1.3    4.0
I    -3.2    2.6   -2.8
H    -3.4   -1.1    3.4
H     4.2   -0.1    2.8
I    -0.5   -4.9   -1.4
H     4.3   -1.7    2.4
H     2.8   -4.3   -0.7
P    -5.1    0.4   -1.3
H    -0.2   -2.7   -4.7
H    -4.7   -0.1    2.8
H    -4.6   -1.7    2.4
I     3.7   -1.5   -3.9
N     4.5   -1.1    3.2
N    -4.5   -1.1    3.2
H     2.6    4.8   -0.8
P    -0.6    4.0   -3.9
I    -5.0    2.2    1.4
C     3.6   -1.4    4.4
I    -3.3   -4.6    2.4
I     2.0    2.0    5.5
I    -0.6    6.0   -1.4
I     1.2   -5.4    2.8
I    -2.4    2.8    5.1
I     1.1    5.5    2.8
C     3.4   -5.3   -0.8
H    -4.1   -4.5   -2.1
H     3.8   -0.7    5.1
H     3.8   -2.4    4.7
I     6.4   -1.1   -0.3
H     5.5   -1.1    3.4
P    -0.6    0.5    6.6
C     3.3    5.7   -0.8
I    -5.2   -1.5   -3.9
H     2.7   -6.1   -0.8
H     4.1   -5.4    0.1
H    -4.3    4.8   -2.2
I     5.7    2.6   -2.8
H     4.0    5.6    0.1
H     3.5   -5.2   -2.9
H     4.8   -4.5   -2.1
P     3.8    4.2    3.9
I    -0.7    2.3   -6.6
N     4.2   -5.2   -2.0
C    -5.3   -1.4    4.4
H     4.6    4.8   -2.2
H    -0.7   -3.8    5.9
H     3.9    1.1   -5.8
I    -6.9   -1.7    0.4
H     3.9    2.8   -5.3
H     2.8    6.6   -0.7
H    -4.8   -5.4    0.1
H     2.6    2.2   -6.4
H    -5.1   -0.7    5.1
H    -5.1   -2.4    4.7
N     4.1    5.7   -2.0
H     3.5    5.8   -2.9
N    -4.7   -5.2   -2.0
H     7.2    1.6    0.7
H    -4.9    5.6    0.1
C     3.7    2.1   -6.1
H    -6.1   -4.3   -0.7
I    -2.3   -4.7   -5.4
H    -0.3    4.8    5.8
I    -3.3    6.3    2.4
H    -6.4   -1.3    4.0
P    -5.1    4.2    3.9
C    -5.5   -5.3   -0.8
I     5.6   -4.6    2.4
I     2.1   -5.4   -5.0
I     2.1    5.5   -5.0
H    -5.0    1.1   -5.8
N    -4.8    5.7   -2.0
H    -4.2   -6.1   -2.2
H    -1.6   -7.6    0.7
H    -5.0    2.8   -5.3
P    -0.7    7.8    1.3
H    -4.1    6.5   -2.1
H    -6.3    4.8   -0.8
P    -0.5   -7.0   -3.9
H    -5.4   -5.2   -2.9
H     7.2    3.4    0.7
C    -5.6    5.7   -0.8
I     1.2   -2.0   -7.7
H     4.7   -6.1   -2.2
H     0.2   -7.7    2.2
H     7.0   -1.3   -3.7
C    -0.9   -4.4    6.8
H    -3.4    2.4   -7.1
C     7.8    2.4    0.7
I    -7.6    2.0   -2.4
P     4.0   -3.2   -6.6
H     4.8    6.5   -2.1
I     1.2   -1.5    8.1
C    -5.3    2.1   -6.1
I    -3.3   -0.9    7.7
H    -5.4    5.8   -2.9
H    -1.9   -4.7    6.8
H    -0.3   -6.2    5.8
N    -0.1    5.3    6.7
H    -0.3   -8.5   -0.0
H     1.0   -5.4    6.6
C    -1.0   -8.5    0.7
I    -2.3    6.3   -5.4
H     7.8    2.4    2.8
H    -0.7   -3.9    7.7
H     3.4    2.3    7.6
H    -0.2    8.2   -3.0
I     6.5    2.8    5.1
P     3.9   -6.7    3.9
H     0.9    5.6    6.6
N    -0.0   -5.7    6.7
H    -6.2   -6.1   -0.8
I     5.6    6.3    2.4
I    -3.2   -1.1   -8.1
H     8.3   -0.4   -2.8
N    -0.4   -8.6    2.1
P    -4.9   -3.2   -6.6
H    -0.3    4.7    7.5
N    -4.4    2.4   -7.3
H     8.6    2.4   -0.0
N     4.5    2.4   -7.3
C     8.1   -1.0   -3.7
H    -7.9   -1.9   -3.8
P     8.3   -3.2    1.3
I     3.6   -5.0    6.6
I    -6.9    2.0    5.5
H    -6.1    6.6   -0.7
N     8.5    2.4    2.1
I     8.1   -1.2    3.9
H    -1.1   -8.6    2.8
H    -8.8    1.5    2.2
P    -0.5    0.3   -9.2
H    -1.0   -5.1   -7.6
P    -5.0   -6.7    3.9
H    -6.3    2.2   -6.4
H     5.5    2.4   -7.1
H     0.3   -4.2   -8.3
H    -0.7    7.2    5.9
H     4.3    1.7   -8.1
I    -3.2   -8.3   -2.8
I     1.3   -9.0   -2.4
H    -2.0    6.2    6.8
H     4.3    3.4   -7.7
C    -1.0    6.5    6.8
H    -4.6    1.7   -8.1
H     9.1    1.5    2.2
I    -0.6    2.5    9.1
H    -0.3    8.2   -4.7
H    -4.3    1.3    8.3
H     8.3   -0.3   -4.6
I     2.0    9.3    0.4
H    -9.2    2.4   -0.0
H    -1.7   -9.4    0.7
H    -4.6    3.4   -7.7
N    -0.0    8.8   -3.8
H    -8.7    3.2    2.2
I     3.6    6.0    6.6
H     4.6    1.3    8.3
I     5.6   -0.9    7.7
N     4.1    2.2    8.4
H    -5.5    2.3    7.6
H     0.2   -9.4    2.2
H     8.8   -2.8   -3.0
H    -1.1    5.9   -7.6
H     0.2    5.0   -8.3
I     4.0   -8.8    1.4
I     6.6   -4.7   -5.4
H    -0.2   -6.3    7.5
I    -5.3   -5.0    6.6
N    -0.3   -5.1   -8.4
I     8.4   -4.9   -1.4
N    -9.3    2.4    2.1
H     1.0    9.0   -3.8
I    -7.7   -5.4    2.8
H    -4.2    3.0    8.4
I    -2.4   -8.2    5.1
H     9.1    3.2    2.2
N    -8.9   -2.2   -3.8
H    -9.5   -0.4   -2.8
H    -9.0   -2.8   -3.0
I    -7.8    5.5    2.8
N     8.9   -2.2   -3.8
I     5.7   -1.1   -8.1
N    -4.9    2.2    8.4
I    -6.8   -5.4   -5.0
P     8.3    4.0   -3.9
H     2.6    1.4    9.7
H     4.7    3.0    8.4
I    -6.8    5.5   -5.0
P    -9.5   -3.2    1.3
I    -4.9   -8.8    1.4
I    -2.5    9.8   -0.3
H     0.3   -5.9   -8.3
H     8.7   -2.7   -4.7
N    -0.4    5.9   -8.4
C   -10.0    2.4    0.7
I     8.3    6.0   -1.4
I    -5.4    6.0    6.6
P     3.7   -3.1    9.2
H     4.2    9.2    2.4
H    -0.7    7.1    7.7
H     3.8    8.6    4.7
C    -9.7   -1.0   -3.7
C     3.3    2.2    9.7
H     3.9   -8.1   -5.3
I     2.1    1.8  -10.1
I     5.8   -8.3   -2.8
H    -0.4   -1.1   10.5
I    -0.9    9.7    3.9
H    -1.9    9.7   -3.7
I    -9.7   -1.2    3.9
H     7.3   -7.6    0.7
I     6.6    6.3   -5.4
H    -9.1   -2.7   -4.7
P     8.3    0.5    6.6
H    -9.5   -0.3   -4.6
H    -4.7    9.2    2.4
H     2.7    3.1    9.8
H     0.2    6.7   -8.3
I    10.2    2.0   -2.4
I     2.1   -8.9    5.5
C    -0.9   10.0   -3.7
H   -10.0    2.4    2.8
I     8.2    2.3   -6.6
I    -9.4   -4.9   -1.4
H    -1.6   -4.1   -9.8
H     2.5    9.6    4.0
H   -10.7    1.6    0.7
H     8.2   -3.8    5.9
H     7.0   -4.7    6.8
H     9.9   -1.9   -3.8
P     3.9    7.7   -6.6
I     3.6    9.5   -3.9
H    -0.6   10.5   -2.8
I    -0.7   -8.7   -6.6
H    -5.0   -8.1   -5.3
P    -5.2   -3.1    9.2
H    -3.5    9.8    3.4
P    -9.5    4.0   -3.9
C    -1.0   -5.0   -9.7
H    -5.1    8.6    4.7
I    -7.7   -2.0   -7.7
I    10.9   -1.7    0.4
C     3.5    9.6    4.4
H   -10.6    3.4    0.7
H    -1.7    5.0   -9.8
H     2.7   -8.8   -6.4
I     4.0   -5.3   -9.0
I    -7.7   -1.5    8.1
I    -2.4    2.4  -10.8
N     4.4    9.9    3.2
P    -5.0    7.7   -6.6
H    -1.7   -0.1   11.2
P     3.9  -10.6   -1.3
I    -9.5    6.0   -1.4
N    -4.5    9.9    3.2
C    -1.2   -1.1   11.2
H     4.1   -1.9  -10.4
C     8.0   -4.4    6.8
C     3.7   -8.9   -6.1
I     4.0    5.7   -9.0
P     8.2    7.8    1.3
H     8.6    4.8    5.8
C    -1.0    5.9   -9.7
C    -5.6    2.2    9.7
H    -1.8   -1.9   11.1
H     4.0    2.1   10.5
I   -11.4   -1.1   -0.3
I    -2.5   -4.6   10.2
H   -10.8   -1.3   -3.7
H     6.9    6.2    6.8
I    -5.3    9.5   -3.9
I    -4.9   -5.3   -9.0
H     2.9   -0.8  -11.2
H    -1.6   -5.9   -9.8
P     8.4   -7.0   -3.9
I    -6.9    9.3    0.4
H    -0.7   10.6   -4.6
P    -9.5    0.5    6.6
H    -3.3   -8.6   -7.1
H    -4.8   -1.9  -10.4
C     7.9   -8.5    0.7
I     6.6   -8.2    5.1
H    -6.3    1.4    9.7
H     4.4   -7.6   -7.7
H    -0.2   -5.1  -10.5
H    -7.9   -5.4    6.6
H    -4.5   -7.6   -7.7
H    -0.5  -11.4   -2.8
H     5.4    9.8    3.4
I     6.4    9.8   -0.3
I    -4.9    5.7   -9.0
P    -5.0  -10.6   -1.3
I    10.0    5.5    2.8
H    -8.0    5.6    6.6
I    10.1   -5.4    2.8
C    -5.4    9.6    4.4
H    -4.9    2.1   10.5
H    -8.7   -7.7    2.2
H     7.2   -9.4    0.7
I     1.2    9.0   -7.7
H    -9.6   -3.8    5.9
C     3.5   -1.8  -11.3
I    -9.7    2.3   -6.6
H    -9.2    4.8    5.8
H     2.8   -2.6  -11.3
H     8.3   -3.9    7.7
H     7.8   -8.6    2.8
C    -5.2   -8.9   -6.1
H     4.2   10.8    2.8
I    -0.5   -1.5  -11.9
I    -7.6   -9.0   -2.4
H    -6.2    3.1    9.8
P     3.8   11.4   -1.3
H     3.5   -8.6    7.6
N    -4.3   -8.5   -7.3
H    -1.6    6.8   -9.8
H    -0.3    5.9  -10.5
H     4.0   -9.9   -5.8
H     7.9   -5.1   -7.6
H     3.7   10.3    5.1
H     8.6   -6.2    5.8
N     4.6   -8.5   -7.3
H     8.6   -8.5   -0.0
H    -4.7   10.8    2.8
I     2.0   -5.2   10.8
H     9.1   -7.7    2.2
H    -0.6  -11.3   -4.6
H     4.3  -11.1    2.8
H    11.5   -1.3    4.0
H    -6.4    9.6    4.0
N     8.8    5.3    6.7
N     8.5   -8.6    2.1
H    -4.1   -7.9    8.4
I    -2.6    6.4   10.2
H    -4.6  -11.1    2.8
I    -2.4  -12.1   -0.3
H     8.7    8.2   -3.0
C     8.0    6.5    6.8
I    -6.8    1.8  -10.1
P    -9.4   -7.0   -3.9
P    -0.6  -10.4    6.6
H     8.2    7.2    5.9
H     8.7    4.7    7.5
I    10.9    2.0    5.5
N    -9.0    5.3    6.7
I    -0.6   -8.4    9.1
P    -9.6    7.8    1.3
P     8.4    0.3   -9.2
H     7.9    5.9   -7.6
I     1.9    5.8   10.8
H     5.6   -8.6   -7.1
N     8.9   -5.7    6.7
H    -5.0   -9.9   -5.8
C    -0.8  -11.9   -3.7
I     1.2    9.4    8.1
H     7.0    9.7   -3.7
I    -6.9   -8.9    5.5
H     4.8   -7.9    8.4
H    -9.2   -6.2    5.8
N    -8.9   -5.7    6.7
P    -5.2   11.4   -1.3
H    -9.2   -8.5   -0.0
H    11.8   -4.3   -0.7
I     8.3    2.5    9.1
H    11.5    4.8   -0.8
H    -6.2   -8.8   -6.4
P    -0.7    4.3   11.8
H    -9.1    8.2   -3.0
I     3.9   -1.3   11.9
N    -0.5   -1.1   12.6
H    -5.2   10.3    5.1
H    -7.9    9.0   -3.8
C    -5.5   -1.8  -11.3
P     3.7    7.9    9.2
H    -1.8   12.5    0.7
H     0.1   12.5    2.2
H    -8.6   -4.2   -8.3
