         400
 sphere cut out from bulk 
H     0.4    1.9   -1.8
I     1.5    0.4    2.2
H    -1.3    1.7   -1.8
I    -2.5   -0.9   -1.6
H     0.3   -2.3    2.2
C    -0.5    2.3   -2.2
I     2.2   -2.2   -1.6
H    -1.4   -2.5    2.2
H    -0.6    3.4   -1.8
C    -0.5   -2.9    2.6
P     4.0   -0.3    0.3
P    -0.5   -2.9   -3.0
I    -3.2    1.6    2.2
P    -0.5    2.3    3.5
H    -0.3    1.4   -4.0
I     3.3    2.3   -1.6
N    -0.5    2.3   -3.7
H    -0.4   -3.9    2.2
H    -0.7   -2.0    4.5
N    -0.5   -2.9    4.1
H    -1.4    2.6   -4.0
H     0.2    3.0   -4.0
P    -5.1   -0.3    0.3
H     3.4    0.5   -4.0
I     0.4   -0.6   -5.4
H     3.2    0.2    4.4
H     0.4   -3.2    4.5
I     0.2    5.1    2.2
H     3.6   -1.2   -4.0
I    -4.4   -2.8    2.2
H    -4.0   -0.2   -4.0
H    -1.2   -3.5    4.5
I     4.7   -2.8    2.2
I    -1.2   -5.6   -1.6
C     4.0   -0.3   -4.4
I    -1.3    0.0    5.9
H     4.0   -1.2    4.4
H    -4.2    0.2    4.4
H     4.1    3.9    2.2
H     3.9   -4.5   -1.8
N     4.0   -0.3    4.8
I    -2.4    5.7   -1.6
I    -5.8    2.3   -1.6
H     5.1   -0.2   -4.0
I     5.9    1.6    2.2
H     4.9    0.2    4.4
H     3.1    5.4    2.2
C    -5.1   -0.3   -4.4
H    -5.0    3.9    2.2
I     1.9    2.9    5.9
I     1.3   -6.3    2.2
H    -5.1   -1.2    4.4
I     6.6   -0.9   -1.6
H    -5.5   -1.2   -4.0
C     4.0    5.0    2.6
H     3.1   -0.4   -6.2
I    -2.9   -3.3   -5.4
H    -5.7    0.5   -4.0
N    -5.1   -0.3    4.8
H     3.3    4.3    4.5
P     4.0    5.0   -3.0
H    -5.2   -4.5   -1.8
I    -3.5    3.1   -5.4
N     4.0   -0.3   -5.9
H     3.2   -6.1   -1.8
C     4.0   -5.5   -2.2
I     1.6    4.6   -5.4
I     1.1   -4.8   -5.4
H    -4.2    5.6    2.2
H     3.1   -5.3   -4.0
H    -5.9    0.2    4.4
I     2.4   -3.7    5.9
H     3.1   -0.7    6.7
I     2.1    6.9   -1.6
I    -6.9   -2.2   -1.6
H    -4.1   -6.0   -1.8
C     4.0   -0.3    6.3
I    -2.1    4.2    5.9
C    -5.1    5.0    2.6
N     4.0    5.0    4.1
P    -0.5    7.6    0.3
H     4.5    0.6   -6.2
H    -4.1    4.7    4.5
P    -5.1    5.0   -3.0
H    -4.4   -4.9   -4.0
P     4.0   -5.5    3.5
H     4.9    5.6    2.2
H    -4.5   -1.1   -6.2
N    -5.1   -0.3   -5.9
H    -4.6    0.6   -6.2
N     4.0   -5.5   -3.7
H     4.6   -1.1   -6.2
C    -5.1   -5.5   -2.2
H    -0.9    6.6   -4.0
H     4.1    0.8    6.7
I    -7.6    0.4    2.2
H     4.7   -4.9   -4.0
H    -4.2   -0.9    6.7
H     5.0   -6.0   -1.8
P    -0.5   -2.9   -7.4
H    -0.5    6.6    4.4
C    -5.1   -0.3    6.3
H     5.0    4.7    4.5
H     7.8    1.7   -1.8
N    -5.1    5.0    4.1
P    -0.5   -8.2    0.3
I    -2.7   -5.0    5.9
P    -0.5    2.3    7.9
P    -5.1   -5.5    3.5
H     4.9   -0.9    6.7
N    -5.1   -5.5   -3.7
H     7.7   -2.5    2.2
H    -5.0    0.8    6.7
H     3.9    5.9    4.5
I     5.6    3.1   -5.4
H    -6.0    5.4    2.2
I    -3.0   -7.5    2.2
H    -1.1   -7.3   -4.0
H    -5.8    4.3    4.5
H    -6.0   -0.4   -6.2
H    -5.9   -6.1   -1.8
H     0.5    7.7   -4.0
H     4.3   -6.5   -4.0
C    -0.5    7.6   -4.4
I     6.2   -3.3   -5.4
H     0.3    1.8   -8.7
H     0.3   -7.7    4.4
H    -1.3   -7.6    4.4
H    -6.0   -5.3   -4.0
I     6.7    5.7   -1.6
H    -6.0   -0.7    6.7
H    -1.4    1.9   -8.7
H     0.5   -8.0   -4.0
N    -0.5    7.6    4.8
H    -4.8   -6.5   -4.0
H    -8.7    1.9   -1.8
H     7.7    2.6   -4.0
H    -5.2    5.9    4.5
I    -3.0    8.3    2.2
C     8.6    2.3   -2.2
H     0.0    6.8   -6.2
H     0.3    8.0    4.4
I     2.1   -8.8   -1.6
C    -0.5   -8.2   -4.4
H     8.5    3.4   -1.8
H    -0.4    3.4   -8.7
H    -8.8   -2.3    2.2
C    -0.5    2.3   -9.0
H    -1.3    8.1    4.4
H    -0.1   -2.0    9.1
H    -1.1    8.4   -4.0
C     8.6   -2.9    2.6
N    -0.5   -8.2    4.8
P     8.6   -2.9   -3.0
H    -0.1   -7.3   -6.2
P     8.6    2.3    3.5
N    -0.5    7.6   -5.9
N     8.6    2.3   -3.7
I    -6.7   -3.7    5.9
H     0.3    7.0    6.7
H     8.4   -2.0    4.5
H     7.9   -3.5    4.5
H    -1.5   -3.0    9.1
I    -7.2    2.9    5.9
I    -2.1   -1.1   -9.5
H    -0.4   -7.1    6.7
I     7.9   -5.6   -1.6
H     8.7   -3.9    2.2
I     1.3    9.4    2.2
I     7.8    0.0    5.9
P     4.0    5.0   -7.4
H     8.8    1.4   -4.0
H    -1.5    7.5   -6.2
H     0.0   -3.7    9.1
H    -1.4    7.2    6.7
I     6.1   -7.5    2.2
C    -0.5    7.6    6.3
H     9.5    1.9   -1.8
N    -0.5   -2.9    9.5
I     1.9   -2.4   -9.5
N     8.6   -2.9    4.1
H     9.4   -2.3    2.2
I    -4.2    7.3   -5.4
I    -7.0    6.9   -1.6
I     1.1    0.4    9.9
H    -0.9   -9.1   -4.0
I     7.0    4.2    5.9
N    -0.5   -8.2   -5.9
I     6.4   -5.0    5.9
C    -9.6    2.3   -2.2
H    -0.5   -9.1    4.4
H    -8.9    3.0   -4.0
I    -7.8   -6.3    2.2
P    -5.1    5.0   -7.4
H    -8.7   -3.2    4.5
I    -8.7   -0.6   -5.4
H     3.2    9.6   -1.8
I    -7.5    4.6   -5.4
H    -9.4    1.4   -4.0
I     4.9    7.3   -5.4
C    -0.5   -8.2    6.3
I     3.3    2.6   -9.5
C    -9.6   -2.9    2.6
I    -1.2   10.2   -1.6
I     3.3   -7.9    5.9
I     3.3    7.9    5.9
H    -1.5   -8.2   -6.2
H    -9.7    3.4   -1.8
I    -2.4  -10.1   -1.6
P    -9.6   -2.9   -3.0
P     4.0   -5.5    7.9
P    -9.6    2.3    3.5
I     6.1    8.3    2.2
H    -0.1    8.5   -6.2
I    -8.9    5.1    2.2
H    -9.5   -3.9    2.2
N    -9.6    2.3   -3.7
I    -2.9    1.9    9.9
H     9.3    3.0   -4.0
H     4.1   -4.5   -8.7
H   -10.4    1.7   -1.8
H    -4.1    9.8   -1.8
N    -0.5    2.3  -10.5
I     9.3    5.1    2.2
H     3.1    4.9    9.1
I    -8.0   -4.8   -5.4
N    -9.6   -2.9    4.1
I    10.6    0.4    2.2
I    -1.3   -5.2   -9.5
I    -4.2   -8.5   -5.4
P    -5.1   -5.5    7.9
H     0.0   -9.0   -6.2
H    -0.4    8.6    6.7
I     0.2  -10.7    2.2
I     9.5   -0.6   -5.4
H    -9.8   -2.0    4.5
H    -5.0   -4.5   -8.7
I     0.4    4.7    9.9
H    -1.4   -8.6    6.7
H     9.5   -3.2    4.5
H     3.1   -6.0   -8.7
H     4.3    9.3   -4.0
H     0.3   -8.8    6.7
H    -0.5    1.4  -10.9
H    -4.5    4.2    9.1
H     3.1  -10.4    2.2
H     4.6    4.2    9.1
H   -10.5   -2.5    2.2
H     5.0    9.8   -1.8
I     4.9   -8.5   -5.4
C     4.0   10.2   -2.2
H    -4.8    9.3   -4.0
I    -2.7    5.5   -9.5
H    -4.2  -10.2    2.2
I    -4.2   -3.2    9.9
H     0.3    2.8  -10.9
H     8.2    6.6   -4.0
C     4.0   -5.5   -9.0
H    -1.3    2.9  -10.9
C    -0.5   -2.9   11.0
I    -7.0   -8.8   -1.6
I    -5.8    2.6   -9.5
H     3.3   -0.9  -10.9
H    -5.9    9.6   -1.8
I    -5.8   -7.9    5.9
H    -4.2   -6.1   -8.7
N     4.0    5.0    9.5
I    -5.8    7.9    5.9
P     8.6    7.6    0.3
H     3.9   -9.8    4.5
H     4.9  -10.2    2.2
I     4.9   -3.2    9.9
P     4.0   10.2    3.5
H    -1.1   -2.1   11.3
H     8.0   -7.3   -4.0
H     3.9    0.7  -10.9
H   -10.5    2.6   -4.0
N     4.0   10.2   -3.7
I    11.3   -2.2   -1.6
C    -5.1   10.2   -2.2
H     0.5   -2.8   11.3
H    -4.1   -0.6  -10.9
H     3.1   10.5   -4.0
I     1.6   -5.9    9.9
H     4.9   -6.1   -8.7
H     8.6    6.6    4.4
H     3.1   -0.0   11.3
I   -11.6   -0.9   -1.6
P     8.6   -2.9   -7.4
H     7.7    1.9   -8.7
C    -5.1   -5.5   -9.0
H     4.5    5.9    9.1
H     7.8   -7.6    4.4
I     7.0   -1.1   -9.5
H   -10.3   -3.5    4.5
H    -4.6    5.9    9.1
C     4.0  -10.8    2.6
N    -5.1    5.0    9.5
I   -10.3   -5.6   -1.6
I     6.2    1.9    9.9
P     8.6   -8.2    0.3
I     2.4    6.8   -9.5
P     4.0  -10.8   -3.0
P     8.6    2.3    7.9
I   -10.4    0.0    5.9
P    -5.1   10.2    3.5
H     5.0   -0.6  -10.9
N    -5.1   10.2   -3.7
H    -0.9   -3.9   11.3
N     4.0   -0.3  -11.3
H    -6.0    4.9    9.1
H    -5.2   -9.8    4.5
H    -0.4   11.8    2.2
H     3.9   11.3   -1.8
H     7.8    8.1    4.4
H    -5.2    0.7  -10.9
H    -4.4    0.4   11.3
H    -6.0   -6.0   -8.7
I    -7.2   -2.4   -9.5
H     4.3   -1.2   11.3
H    -6.0  -10.4    2.2
P    -0.5   -2.9  -11.8
C    -5.1  -10.8    2.6
I     6.7  -10.1   -1.6
N     4.0  -10.8    4.1
H    -8.6    7.7   -4.0
P    -9.6    7.6    0.3
I     1.1   10.9   -5.4
H     4.7    0.4   11.3
H     7.6   -3.0    9.1
H     8.0    8.4   -4.0
P    -5.1  -10.8   -3.0
C     8.6    7.6   -4.4
H    -4.8   -1.2   11.3
H    -5.8   -0.9  -10.9
N    -5.1   -0.3  -11.3
H     7.6    7.5   -6.2
N     4.0   -0.3   11.7
I    10.4   -6.3    2.2
H    -4.4   10.9   -4.0
H     7.7    7.2    6.7
I    -7.8    9.4    2.2
H    -8.6   -8.0   -4.0
H     3.2   -5.0  -10.9
N     8.6    7.6    4.8
H    -8.8    1.8   -8.7
I    10.2   -4.8   -5.4
P    -9.6   -2.9   -7.4
H    -8.8   -7.7    4.4
H    -5.2   11.3   -1.8
H    -9.6    6.6    4.4
I     1.6  -11.2   -5.4
I    -2.7   10.7    5.9
H    -0.6  -12.4   -1.8
H     3.6    4.0   11.3
H     4.7   10.9   -4.0
N     4.0   -5.5  -10.5
N    -5.1  -10.8    4.1
I   -12.3    1.6    2.2
P    -9.6   -8.2    0.3
P    -0.5    2.3   12.4
C     8.6   -8.2   -4.4
H    -4.1  -11.1    4.5
P    -9.6    2.3    7.9
H   -10.0    6.6   -4.0
C     8.6    2.3   -9.0
I     6.4    5.5   -9.5
H    -8.8    8.0    4.4
C     4.0    5.0   11.0
H     3.3  -11.4    4.5
H     4.1  -11.8    2.2
H     8.7    3.4   -8.7
N    -5.1   -0.3   11.7
I    12.4    2.3   -1.6
H    -6.0   10.5   -4.0
H    -4.2   -5.1  -10.9
H    -6.0   -0.0   11.3
I    -8.0    0.4    9.9
I    11.0    2.9    5.9
N     8.6   -8.2    4.8
H     7.6   -8.2   -6.2
I    10.7    4.6   -5.4
N     8.6    7.6   -5.9
I    -3.5   -7.4    9.9
H    -9.1    6.8   -6.2
H     8.2   -9.1   -4.0
I   -11.5    5.7   -1.6
N    -5.1   -5.5  -10.5
H     5.0  -11.1    4.5
H     9.4    1.8   -8.7
I     7.9   10.2   -1.6
H     9.2    6.8   -6.2
H    -1.2    7.0  -10.9
H     9.5   -7.7    4.4
H     9.6    7.7   -4.0
H     4.9   -5.1  -10.9
H     9.0   -2.0    9.1
C    -9.6    7.6   -4.4
H    -5.0  -11.8    2.2
H    -4.0    5.1   11.3
