         400
 sphere cut out from bulk 
P    -1.1   -0.4   -1.3
I     0.7    1.6    0.3
I    -1.2   -2.3    1.3
H    -1.5    0.0    2.9
H    -1.4    1.6    2.4
I     1.5   -1.9   -2.4
N    -1.7    1.0    3.2
H     2.5   -1.7    2.3
H     3.0   -2.4    0.0
I    -3.8    1.1   -0.4
H     2.2    0.8   -3.2
H    -1.1    4.0   -0.3
H     0.2    1.3    4.1
I    -1.1    1.4   -3.9
H    -2.7    1.1    3.3
C     3.8   -2.4    0.8
N     3.1   -2.5    2.1
H    -0.7   -4.5   -0.4
H     4.3   -1.5    0.8
H     2.3    2.6   -3.1
C    -0.9    1.4    4.4
H    -1.1    4.0   -2.1
P     3.3    3.2    1.3
I    -2.9   -2.7   -2.7
C     2.6    1.7   -3.7
H     2.6   -3.4    2.2
H    -4.6   -1.5    0.8
C    -1.3    4.6   -1.2
H    -0.8   -4.5   -2.0
N    -0.6   -5.1   -1.2
H    -1.1    0.7    5.2
H    -1.1    2.4    4.7
I     5.2    1.1   -0.4
H     3.8   -2.5    2.9
I     3.7    1.2    3.8
H     0.5   -5.3   -1.3
H     4.5    1.5   -2.8
H     2.2    1.8   -4.7
H    -4.5    1.5   -2.8
H     4.4   -3.3    0.7
H    -2.4    4.9   -1.1
H    -4.5   -3.3    0.7
I     0.7   -2.0    5.3
N     4.1    1.6   -3.8
C    -5.2   -2.4    0.8
H     0.5    5.6   -1.3
P    -1.2   -4.2    3.9
I    -3.0    4.7    2.3
H    -1.1   -1.1   -5.8
N    -0.5    5.9   -1.2
H    -1.1   -2.8   -5.3
I     3.1    5.1   -1.3
H     4.3    0.8   -4.3
I     1.5    5.3    2.8
H    -4.6    0.8   -4.3
N    -4.9    1.6   -3.8
H    -5.1   -2.5    2.9
H    -6.0   -2.4    0.0
I     1.5   -5.6    2.8
C    -0.9   -2.1   -6.1
H    -0.7    6.4   -0.4
P     3.4   -4.0   -3.9
C    -1.4   -6.3   -1.2
P    -5.6    3.2    1.3
H     4.5    2.4   -4.2
H    -4.5    2.4   -4.2
H    -2.4   -6.1   -1.1
I    -5.3    1.2    3.8
H     0.2   -2.2   -6.3
N    -5.9   -2.5    2.1
I     3.1   -5.9   -1.3
H    -0.8    6.4   -2.0
I    -3.8   -2.8    5.1
H    -1.1   -6.9   -0.3
H    -6.5   -1.7    2.3
I     6.0   -2.7   -2.7
H     6.3    1.1    3.3
H    -1.2   -6.9   -2.1
I    -3.0   -6.3    2.3
P    -1.1    3.3   -6.5
P     3.4   -0.5    6.5
I     0.7   -5.5   -5.1
I     0.8    5.5   -5.1
H    -6.8    0.8   -3.2
C    -6.4    1.7   -3.7
H    -6.4   -3.4    2.2
I     5.1   -2.8    5.1
H    -6.6    2.6   -3.1
I    -5.9    5.1   -1.3
N    -1.7   -2.5   -7.3
I     3.6   -2.3   -6.6
P    -1.1    6.7    3.9
P    -5.6   -4.0   -3.9
H    -2.7   -2.3   -7.1
I     6.0    4.7    2.3
I     1.5    1.9   -7.6
P     7.9   -0.4   -1.3
H     7.5    0.0    2.9
N     7.3    1.0    3.2
I    -3.8    4.6   -5.4
H     7.5    1.6    2.4
H     2.2    5.3    5.7
I    -7.5   -1.9   -2.4
I    -1.1    4.9    6.5
I     7.8   -2.3    1.3
I     1.5    1.5    8.0
H     6.6    4.9   -1.1
I    -2.9    0.8    7.7
H     2.6    7.5    2.2
H     2.2   -5.6    5.7
H    -1.4   -1.8   -8.1
I    -5.9   -5.9   -1.3
H    -1.5   -3.4   -7.6
H    -6.8    1.8   -4.7
I    -8.3    1.6    0.3
H    -0.8   -1.0    8.4
P     3.3   -7.8    1.3
H     4.4    4.2    6.1
P    -5.6   -0.5    6.5
H     2.2    4.3    7.2
P     3.4    6.9   -3.9
I    -3.0    1.2   -8.1
H    -4.6    4.2    6.1
I    -5.3   -2.3   -6.6
I     5.2    4.6   -5.4
I    -1.2    8.7    1.3
H     7.9    4.0   -0.3
C     2.6    5.2    6.7
I     7.8    1.4   -3.9
H     4.5    7.7    0.7
H    -4.5    7.7    0.7
I     6.0   -6.3    2.3
I    -1.2   -6.1    6.5
H     6.5   -6.1   -1.1
C     7.6    4.6   -1.2
H     3.0    8.5    0.0
H     7.8    4.0   -2.1
H    -1.1   -3.4    8.4
H     2.3   -4.9    7.3
I    -3.8   -6.3   -5.4
H     4.4   -5.0    6.2
I    -2.9    8.3   -2.7
H     2.3   -8.4   -3.1
H    -4.5   -5.0    6.2
C     2.5   -5.8    6.7
N     3.1    8.4    2.1
C     8.1    1.4    4.4
N     4.1    5.0    6.7
I     0.6   -9.3    0.3
C     3.8    8.5    0.8
H     0.5   -1.8    9.2
H     8.2   -4.5   -0.4
N    -0.6   -1.6    9.2
H     7.8    0.7    5.2
H     7.9    2.4    4.7
I     1.5    9.0   -2.4
H     2.6    4.1   -8.2
H     8.1   -4.5   -2.0
I    -7.4    5.3    2.8
P    -1.1    3.0    9.1
N    -4.9    5.0    6.7
H     3.8    8.4    2.9
P    -5.5    6.9   -3.9
H     4.5    5.9    6.2
H    -4.5    5.9    6.2
P     7.8   -4.2    3.9
H    -1.5   -9.3    2.4
P     3.3   -0.3   -9.1
P    -5.7   -7.8    1.3
I     5.1   -6.3   -5.4
H     6.3   -2.3   -7.1
I    -7.5   -5.6    2.8
N     4.0   -5.9    6.7
H    -1.1    8.2   -5.3
H    -8.8    1.3    4.1
I     9.6    1.6    0.3
C    -1.4   -2.9    9.3
H     3.8    4.9   -7.5
H     2.3    6.1    7.3
H    -1.1   -8.6    4.7
H     7.9   -1.1   -5.8
I     6.0    0.8    7.7
H     2.5    9.2    2.3
H     7.8   -2.8   -5.3
N     8.4   -5.1   -1.2
I     3.1   -2.4    9.1
H    -2.4   -2.6    9.3
H     2.4   -5.2   -8.1
C     7.6   -6.3   -1.2
C    -5.2    8.5    0.8
I    -8.2   -2.0    5.3
H     4.3   -6.7    6.1
H     2.1   -6.7    7.2
H    -6.3    7.5    2.2
H    -8.5   -5.3   -1.3
H     9.1    1.3    4.1
H     4.5    4.9    7.6
P    -1.2   -7.7   -6.5
H    -4.5    4.9    7.6
H    -0.7   -1.0   10.1
P   -10.1   -0.4   -1.3
N     3.1    5.0   -8.3
N    -4.9   -5.9    6.7
I     6.0    1.2   -8.1
H    -4.6   -6.7    6.1
H     2.5    5.7   -8.1
H    -8.5    5.6   -1.3
H    -5.1    8.4    2.9
C     2.5   -9.2   -3.7
I     0.7   -1.8  -10.1
I    -3.8    8.1    5.1
C     8.1   -2.1   -6.1
H    -6.8    5.3    5.7
N     8.4    5.9   -1.2
H     3.8   -6.0   -7.5
H    -5.1    4.9   -7.5
I    -1.2   -9.5   -3.9
H    -6.0    8.5    0.0
I     0.8    8.9    5.3
H     4.3    9.5    0.8
H     7.9   -6.9   -0.3
H     4.4   -8.5   -4.2
N    -5.8    8.4    2.1
H     8.3    6.4   -0.4
H     2.2   -9.1   -4.7
I   -10.1   -2.3    1.3
H    -4.5   -8.5   -4.2
I    -3.8   -9.8   -0.4
H     0.2   -9.7    4.1
H    -6.8   -5.6    5.7
I    -1.2    5.2   -9.1
H    -4.6    9.5    0.8
N    -1.7   -9.9    3.2
C    -0.9   -9.6    4.4
N     7.3   -2.5   -7.3
H     8.2    6.4   -2.0
C    -6.4    5.2    6.7
I     6.1    8.3   -2.7
H     7.8   -6.9   -2.1
P    -1.1   10.5   -1.3
H     4.4   -6.0    7.6
N     3.1   -6.0   -8.3
P     7.8    3.3   -6.5
H    -9.7   -4.5   -0.4
H    -4.5   -6.0    7.6
H    -2.7   -9.8    3.3
P    -5.6   -0.3   -9.1
C    -0.8    8.8   -6.1
H    -6.8    4.3    7.2
H   -10.4    1.6    2.4
H    -1.1   -3.4   10.2
H    -1.4    7.5   -7.6
H    -1.1    0.6  -10.7
H     0.2    8.7   -6.3
I    -7.4    1.9   -7.6
H     4.4   -9.5   -2.8
H   -10.4    0.0    2.9
H   -10.0    4.0   -0.3
I    -1.2   -5.7   -9.1
C    -9.8    1.4    4.4
H     2.1  -10.1   -3.2
N    -9.5   -5.1   -1.2
N     4.0   -9.4   -3.8
I     5.2    8.1    5.1
H    -4.5   -9.5   -2.8
H     9.4   -5.3   -1.3
I    10.4   -1.9   -2.4
I   -10.1    1.4   -3.9
H    -5.2   -6.0   -7.5
H     3.0    1.0   10.5
C    -6.4   -5.8    6.7
H    -9.8   -4.5   -2.0
H     2.6   -6.9   -8.2
H    -8.8   -2.2   -6.3
I    -7.5    1.5    8.0
H   -10.1    4.0   -2.1
P     7.8    6.7    3.9
H    -6.7   -4.9    7.3
H     9.5    5.6   -1.3
I     3.6   -9.7    3.8
I     5.2   -9.8   -0.4
I    -8.2    5.5   -5.1
H    -6.7   -8.4   -3.1
I    -8.2   -5.5   -5.1
I    -5.9   -2.4    9.1
N   -10.6    1.0    3.2
H    -6.4    4.1   -8.2
H     7.5   -1.8   -8.1
H     7.5   -3.4   -7.6
N    -9.5    5.9   -1.2
H    -0.7    3.0  -10.8
N    -4.9   -9.4   -3.8
I     9.7   -2.0    5.3
H    -1.1    7.5    8.4
N    -5.8    5.0   -8.3
I     7.8    4.9    6.5
N    -1.6    8.5   -7.3
H     9.1   -2.2   -6.3
H   -10.1    2.4    4.7
C   -10.3    4.6   -1.2
H   -10.1    0.7    5.2
H    -1.5  -10.9    2.9
H    -1.4   11.0    2.9
H    -2.7    8.6   -7.1
H    -6.5    9.2    2.3
H    -1.1    9.9   -5.8
I     3.7    8.7   -6.6
P    -1.1  -11.4   -1.3
C     3.8    5.1   -9.6
H     4.5    4.2   -9.8
H    -4.5    4.2   -9.8
H    -1.2  -10.3    5.2
H    -6.6    6.1    7.3
H    -9.7    6.4   -0.4
H    11.1    0.8   -3.2
H    -6.5   -5.2   -8.1
P   -10.1   -4.2    3.9
H     6.5   -2.6    9.3
H   -10.1   -1.1   -5.8
I    -3.7    4.6   10.0
H     4.3   -4.9   -9.7
I    -3.8   -2.3  -10.8
H   -10.1   -2.8   -5.3
I     7.8    8.7    1.3
C    -1.3    1.2  -11.6
C    -9.8   -2.1   -6.1
H     8.1   -1.0    8.4
I    -5.3   -9.7    3.8
H    11.4   -1.7    2.3
N    -5.9   -6.0   -8.3
H    -4.7   -4.9   -9.7
C    -6.4   -9.2   -3.7
I     7.8   -6.1    6.5
H    -9.7    6.4   -2.0
H    -6.5    5.7   -8.1
H     4.3  -10.2   -4.3
I    -1.2    1.2   11.8
C     3.8    1.1   11.2
C     3.7   -5.9   -9.6
N    -0.5    2.4  -11.6
H     0.5    2.2  -11.7
H    -2.4    1.4  -11.6
I     1.5   -9.1   -7.6
I     0.7    5.1   10.8
H    -6.8   -6.7    7.2
H     3.0    5.1  -10.4
H     4.4    0.2   11.1
H     7.8   -3.4    8.4
I    -7.4    9.0   -2.4
H    -4.5    0.2   11.1
H    -4.6  -10.2   -4.3
H    11.3    2.6   -3.1
C    -5.2    5.1   -9.6
H    -6.0    1.0   10.5
I    10.5    5.3    2.8
I    -5.3    8.7   -6.6
P    -1.1   -7.9    9.1
H     6.2   -9.8    3.3
H     4.3    2.0   11.2
H    11.9   -2.4    0.0
C   -10.3   -6.3   -1.2
H   -11.7    1.1    3.3
H     7.5   -9.3    2.4
H     4.3    6.0   -9.7
H   -10.1   -6.9   -0.3
I    10.5   -5.6    2.8
I     5.2    4.6   10.0
I     9.7   -5.5   -5.1
I     5.2   -2.3  -10.8
C    11.5    1.7   -3.7
H    11.5   -3.4    2.2
H    11.1    1.8   -4.7
I     3.1    1.6  -11.7
H    -1.4    9.1   -8.1
I     9.7    5.5   -5.1
H    -4.6    2.0   11.2
I     0.6   -5.9   10.8
H    -4.6    6.0   -9.7
H    -6.8   -9.1   -4.7
H     3.0   -5.9  -10.4
C     7.6   -2.9    9.3
C    -1.3    8.1    9.3
H     2.2   11.8   -3.2
P     7.9    3.0    9.1
I     1.4   -9.4    8.0
H   -11.4    4.9   -1.1
C    -5.2    1.1   11.2
H   -10.1   -6.9   -2.1
C    -5.2   -5.9   -9.6
P   -10.1    3.3   -6.5
P    -1.1   -3.9  -11.8
I    -3.8   -6.3   10.0
H    -6.4   -6.9   -8.2
N    -1.6   12.0    3.2
H     7.9    8.2   -5.3
H     7.8   -8.6    4.7
I   -11.9   -2.7   -2.7
I    -8.3   -9.3    0.3
N    12.1   -2.5    2.1
H    -1.1    0.6  -12.5
