         400
 sphere cut out from bulk 
P    -0.1    0.0   -0.9
I     1.2   -2.0    1.2
I     1.0    2.2    1.2
I    -2.6   -0.0    1.2
P    -0.2    0.0    3.3
I     2.3    0.1   -3.0
I    -1.3   -2.1   -3.0
I    -1.4    2.1   -3.0
H     3.6   -2.5    0.6
H     0.1    4.5    0.5
H    -4.1   -2.0    0.6
H     3.5    2.5    1.9
H     4.2   -1.7   -1.6
H    -4.2    1.9    1.9
P    -0.1    0.1   -5.1
H    -1.0    4.7   -1.8
H    -3.8   -3.0   -1.6
H     0.5   -4.6    2.4
N     4.5   -2.7    0.2
H     3.7   -3.4   -1.6
N    -0.2    5.4    0.1
C     4.5   -2.7   -1.3
H     0.8    5.1   -1.7
N    -4.8   -2.7    0.2
H     5.2   -2.0    0.6
H    -5.1   -1.7   -1.6
C    -0.2    5.4   -1.4
C    -4.8   -2.7   -1.3
H    -1.2    5.5    0.5
N     4.5    2.7    2.3
H    -4.5   -3.6    0.6
H     5.1    1.9    1.9
I     2.2   -0.0    5.4
I    -1.4   -2.2    5.3
I    -1.5    2.0    5.4
H    -3.7    2.2   -4.1
N    -4.8    2.7    2.3
H     4.1    1.4   -4.2
H    -4.5    3.6    2.0
H    -1.0   -4.3   -4.2
H     4.9   -3.6    0.6
H     4.3    1.6    4.1
H     0.4    6.1    0.5
H    -1.1   -4.4    4.2
C     0.4   -5.4    3.1
H    -5.7   -2.5    0.6
H    -1.7   -5.3    3.0
H     4.8    3.6    2.0
C     4.5    2.6    3.8
H    -3.9    3.0    4.2
H     3.7    3.3    4.1
H     5.5   -3.0   -1.6
N    -1.0   -5.3    3.7
H    -5.8    2.5    1.9
H     1.1   -5.2    3.9
H    -0.4    6.4   -1.7
C    -4.8    2.6    3.8
H    -5.0    1.6    4.1
H    -5.6   -3.4   -1.6
I     6.7   -0.0    1.2
N    -4.5    1.9   -4.8
H    -5.2    1.4   -4.2
H     0.5   -6.3    2.7
H    -4.1    1.2   -5.5
I    -3.6    5.9    1.3
H     1.1   -5.2   -4.6
N     4.8    1.9   -4.8
I    -3.6   -5.9    1.4
N    -1.0   -5.2   -4.7
H     3.8    3.8   -4.7
H     5.6    2.2   -4.1
H    -1.1   -6.0   -4.1
I     3.3    5.9   -2.9
I     3.3   -6.0   -2.9
H     5.4    3.0    4.2
P    -0.2   -0.1    7.5
C     0.4   -5.3   -5.3
H    -1.2   -6.1    4.4
I     1.2   -1.9   -7.2
I     0.9    2.3   -7.2
I    -2.6   -0.1   -7.1
H     0.5   -4.5   -6.1
C     4.3    3.1   -5.5
I    -7.0    0.1   -3.0
H     3.5    2.8   -6.2
H     5.2    1.2   -5.5
H    -1.7   -5.2   -5.4
H    -5.6    3.3    4.1
C    -5.0    3.1   -5.5
H     4.2   -1.7    6.7
H    -5.5    3.8   -4.7
H    -4.2    3.6   -6.0
H    -1.0    4.6    6.7
I     2.0    7.9    1.3
H     3.6   -3.4    6.6
H    -3.9   -3.1    6.6
I     5.7   -5.9    1.4
H     0.7    5.0    6.7
I     5.7    5.9    1.3
I    -8.1   -2.0    1.2
H    -5.1   -1.7    6.7
H     0.4   -6.3   -5.8
I    -8.3    2.2    1.2
I     2.2   -8.3    1.3
H     5.1    3.6   -6.0
I     7.9    2.1   -3.0
I     3.3    5.9    5.5
C     4.4   -2.7    7.0
I    -2.3   -7.9   -2.9
C    -0.2    5.3    7.0
I     3.3   -6.1    5.5
I     8.0   -2.1   -3.0
H    -5.8    2.8   -6.2
I    -6.0    5.9   -2.9
I    -7.1   -0.0    5.4
I    -6.0   -6.0   -2.9
C    -4.9   -2.7    7.0
I    -2.4    8.2   -2.9
H     3.5   -2.4   -8.0
H     5.4   -3.1    6.6
H     0.1    4.5   -7.9
H    -4.2   -1.9   -7.9
H    -0.4    6.3    6.7
P     4.4    8.1   -0.8
P     9.2    0.0   -0.9
P     4.6   -8.1   -0.8
P    -0.2    0.1   -9.3
H    -5.7   -3.4    6.6
P    -4.7   -8.1   -0.8
P    -4.9    8.1   -0.8
P    -9.4    0.0   -0.9
H     5.1   -1.9   -7.9
P     4.4    7.9    3.4
H     7.6   -5.3    3.0
P     9.2    0.0    3.3
I     7.9    2.0    5.4
I     6.7   -0.1   -7.1
H     8.4    4.7   -1.8
I    -3.6   -5.7   -7.0
I     7.9   -2.2    5.3
H    -1.1    5.7   -7.9
N     4.5   -2.6   -8.3
H    -4.5   -3.6   -8.0
H    -0.3   -9.7   -1.7
H     8.1    5.5    0.5
H     3.5   -2.6    8.8
H     0.1    4.4    8.9
I     1.2   -2.1    9.6
I     0.8    2.1    9.6
N    -0.2    5.5   -8.3
P    -4.9    7.9    3.4
P     4.5   -8.2    3.4
N     4.4   -2.8    8.5
I    -2.3   -8.0    5.4
H     4.8   -3.6   -8.0
N    -4.8   -2.6   -8.3
N    -0.2    5.3    8.5
H     0.6  -10.0    0.5
P    -9.5    0.0    3.3
I    -6.0    5.9    5.5
H    -4.2   -2.1    8.9
I    -3.4    6.2   -7.1
I    -2.4    8.1    5.4
H     0.5    6.2   -7.9
I    -2.7   -0.3    9.7
P    -4.8   -8.2    3.4
H    -8.5    5.1   -1.7
I    -6.0   -6.1    5.5
H    -5.8   -2.4   -8.0
H     0.3    9.8    2.7
N    -4.9   -2.8    8.5
H     8.2   -4.4    4.2
H     8.3   -4.3   -4.2
H    -9.2    4.5    0.5
H    -8.8   -4.6    2.4
H     5.1   -2.1    8.9
H     9.4    4.5    0.5
P     4.4    8.1   -5.0
H    -8.2   -5.2    3.9
H    -1.2    5.5    8.9
N     8.3   -5.3    3.7
P     4.6   -8.1   -5.0
P     9.2    0.1   -5.1
N     9.1    5.4    0.1
H    -4.6   -3.7    8.8
P    -4.7   -8.1   -5.0
H    -1.0  -10.6    0.5
I    10.4    2.2    1.2
P    -4.9    8.1   -5.0
H     4.7   -3.7    8.8
C     9.1    5.4   -1.4
P    -9.4    0.1   -5.1
H     7.6   -5.2   -5.4
I     5.7   -5.7   -7.0
H     0.4    6.0    8.9
H    -8.2   -5.2   -4.6
I    10.5   -2.0    1.2
N    -0.1  -10.7    0.1
I    -7.3    7.9    1.3
C    -0.1  -10.7   -1.4
H    -8.9    6.1    0.5
I    -3.4  -10.2    1.3
C    -8.9   -5.4    3.1
I     2.1    7.9   -7.1
N     8.3   -5.2   -4.7
H     8.2   -6.0   -4.1
H    -5.8   -2.6    8.8
N    -9.5    5.4    0.1
I    -3.8   10.2    1.4
I     7.0   -7.9   -2.9
I    -7.1   -8.3    1.3
H    -1.3   10.1   -4.1
I    -8.1   -1.9   -7.2
C    -9.5    5.4   -1.4
I     3.2   10.1   -2.9
H     8.1   -6.1    4.4
H    -1.3   10.1    4.4
H     9.8   -4.6    2.4
I     2.2   -8.2   -7.1
H     8.9    6.4   -1.7
I     6.9    8.2   -2.9
C     4.5   -2.6   -9.8
I     5.9    6.2   -7.1
H     4.3   -1.5  -10.1
I     3.5  -10.2   -2.9
H     0.9  -11.0   -1.7
H    -8.8   -6.3    2.7
I   -10.6   -2.1   -3.0
C     0.2   10.8    3.1
C    -0.2    5.5   -9.8
C    -4.8   -2.6   -9.8
H    -1.0    4.8  -10.1
H    -3.9   -2.9  -10.2
I    -8.4    2.3   -7.2
H     3.7   -3.2  -10.2
I   -10.7    2.1   -3.0
H    -1.9   10.8    3.0
H     0.8    5.1  -10.2
H    -5.0   -1.5  -10.1
H   -10.3    4.7   -1.8
H     0.3    9.8   -5.8
H    10.1    5.1   -1.7
H     3.5    2.6   10.6
C     9.7   -5.4    3.1
H     9.7    6.1    0.5
N    -1.1   10.9    3.7
H    -0.8  -11.4   -1.8
H     8.3    4.6    6.7
H    -8.8   -4.5   -6.1
I     2.3    0.1  -11.4
H     1.0   10.9    3.9
H     0.3  -11.7    0.5
I     5.5   10.2    1.4
I    -1.4    2.2  -11.4
C    -8.9   -5.3   -5.3
P    -0.1   -0.1   11.7
H     0.4   -4.7   10.7
I    -1.3   -2.0  -11.5
I     6.6   -0.3    9.7
P     9.1   -0.1    7.5
H    -9.7    6.4   -1.7
H     0.3   11.5    2.4
H     1.0   10.9   -4.6
H    -0.3   -9.8    6.7
I     5.9  -10.2    1.3
P     4.4    8.0    7.6
H   -10.5    5.5    0.5
I     3.2   10.1    5.5
I    -3.5    6.0    9.7
H     5.4   -2.9  -10.2
H    -8.6    5.0    6.7
I     6.9    8.1    5.4
H   -10.3   -4.3   -4.2
I     7.0   -8.0    5.4
I   -11.9   -0.0    1.2
H     9.8   -6.3    2.7
N    -1.1   10.9   -4.7
I    -3.7   -5.9    9.8
P     4.6   -8.1    7.6
I    11.6    0.1   -3.0
P    -4.9    8.0    7.6
H    -0.4    6.5  -10.1
C     0.2   10.8   -5.3
H   -10.4   -4.4    4.2
P    -4.7   -8.1    7.6
H    -5.6   -3.2  -10.2
I    -5.8  -10.2   -2.9
H    -4.1    1.1   11.3
P    -9.5   -0.1    7.5
I     3.4  -10.3    5.5
N   -10.3   -5.3    3.7
I   -10.7   -2.2    5.3
H    -4.3    3.5   10.9
I    -6.1   10.1   -2.9
I   -10.8    2.0    5.4
C     9.7   -5.3   -5.3
H    10.4   -5.2    3.9
H    -1.9   10.9   -5.4
H    -8.9   -6.3   -5.8
H     9.8   -4.5   -6.1
H    -5.8    2.6   10.6
N   -10.3   -5.2   -4.7
H     5.0    3.5   10.9
C     4.2    3.0   11.3
H     5.2    1.1   11.3
H    10.4   -5.2   -4.6
H    -1.3   11.7    4.2
I     2.0    7.8    9.7
H   -11.0   -5.3    3.0
H    -1.2   11.8   -4.2
C     9.1    5.3    7.0
I    10.2    2.3   -7.2
I    -3.3   -9.9   -7.1
H    -1.8   -5.4   11.4
H   -10.5   -6.0   -4.1
C     0.3   -5.5   11.5
I     5.6   -5.9    9.8
H     8.2    5.7   -7.9
H     0.4   -6.5   11.0
H     0.6   -9.9   -7.9
I    11.5   -0.0    5.4
I    -8.1   -2.1    9.6
H     8.9    6.3    6.7
C    -5.1    3.0   11.3
I     5.8    6.0    9.7
H   -10.5   -6.1    4.4
C    -0.1  -10.8    7.0
I    10.5   -1.9   -7.2
I    -7.2    7.9   -7.1
I     2.2   -8.3    9.7
H    -9.2    4.5   -7.9
N    -4.5    1.7   12.0
C    -9.5    5.3    7.0
I    -7.1   -8.2   -7.1
H     9.7   -6.3   -5.8
I    -6.1   10.1    5.5
H     0.9  -11.2    6.7
I    -8.5    2.1    9.6
I    -5.9  -10.3    5.5
H    10.0    5.0    6.7
P     9.1    0.1   -9.3
N     4.8    1.7   12.0
P     4.6   -8.0   -9.2
P    -4.7   -8.0   -9.2
I    -3.8   10.4   -7.0
H     0.4   11.6   -6.1
P     4.5    8.2   -9.2
H    12.9   -2.5    0.6
H   -10.3    4.6    6.7
H     9.4    4.5   -7.9
H    -1.0  -10.5   -7.9
H     3.8    3.6   12.1
H    12.8    2.5    1.9
I     3.4   -5.9  -11.3
H     8.1    5.5    8.9
P    -4.8    8.2   -9.2
I     3.3    6.0  -11.3
N    -1.0   -5.3   12.1
H     4.0    1.2   12.6
P    -9.5    0.1   -9.3
H     3.6   12.7   -1.6
H    -8.7  -10.0    0.5
H    -0.9  -11.5    6.7
H    -1.1   -4.2  -12.6
H    -4.6   12.5    0.6
H   -11.0   -5.2   -5.4
H     9.0   -9.7   -1.7
H     4.7   12.5    0.6
H    -3.8    2.0   12.7
H    -8.8    6.2   -7.9
H    -9.7    6.3    6.7
I    -7.0    0.1  -11.4
H    -4.3  -12.5    2.0
H     1.1   -5.4   12.2
H     8.3  -10.6    0.5
H     7.4   10.8    3.0
H    -1.1   -4.5   12.6
H     0.6  -10.1    8.9
P    -0.1    0.2  -13.5
N     9.1    5.5   -8.3
N    -0.0  -10.7   -8.3
N     9.1    5.3    8.5
H    -9.2    4.4    8.9
H     4.3    1.8  -12.7
H    -9.0    9.8    2.7
H     8.0   10.1   -4.1
H   -13.1   -3.0   -1.6
H    -3.8    3.1  -12.6
H    13.0   -3.4   -1.6
H     8.0   10.1    4.4
H   -13.4   -2.0    0.6
H     5.0  -12.5    2.0
H     9.4    4.4    8.9
I     6.0   -9.9   -7.1
H     3.7    3.5  -12.7
H    -5.3    1.2   12.6
I     5.5   10.4   -7.0
N    -9.5    5.5   -8.3
H    -9.6   -9.7   -1.7
H    13.5   -1.7   -1.6
