         400
 sphere cut out from bulk 
H     0.1    0.4    1.0
I    -1.3    0.1   -1.1
N     0.8    0.3    1.9
H     1.3   -0.6    1.7
H     1.5    1.1    1.8
H     0.5   -2.6   -1.4
C     0.1    0.4    3.2
H    -0.7   -0.5    3.2
H    -0.5    1.3    3.2
P     0.6    2.3   -2.6
I     3.2    0.9   -1.4
I     2.3   -2.8    1.1
C     0.3   -3.3   -2.2
H     0.8    0.3    4.0
I     0.2    4.1    0.0
P    -3.9   -1.4   -0.0
H    -0.7   -3.2   -2.6
H    -2.4    3.6    0.0
I    -2.1   -3.4    1.7
H     1.0   -2.0   -3.7
H    -3.7    2.8   -0.7
H    -3.6    2.8    1.0
N     1.2   -3.0   -3.4
I    -3.9    0.5    2.6
H     0.5   -4.3   -1.9
N    -3.4    3.4    0.1
H     2.2   -3.1   -3.1
P     5.0   -1.4   -0.0
I     0.8    0.3   -5.1
H    -3.9    0.8   -3.9
H    -2.5    0.4   -5.0
H     1.0   -3.6   -4.1
H     3.6    4.3    0.1
I    -2.1    3.6   -3.8
I     5.0    0.5    2.6
P     0.5   -5.0    2.6
I    -4.1   -3.2   -2.6
I    -5.7    0.9   -1.4
H     5.2    2.8   -0.7
C    -3.6    0.2   -4.8
I    -1.3    3.9    4.3
H    -3.8   -0.8   -4.6
H     5.3    2.8    1.0
C    -4.2    4.6    0.1
I     0.8   -3.2    5.3
H    -4.2   -1.8    4.3
I     4.8   -3.2   -2.6
H     5.0    0.8   -3.9
N     5.5    3.4    0.1
H    -4.1   -3.3    3.7
H     3.4   -2.9    4.7
I     2.3    4.4   -4.2
P     0.4    6.0    2.6
C     4.6    4.6    0.1
I     3.1    4.5    3.6
H    -4.0    5.1   -0.9
H     4.7   -1.8    4.3
H    -3.9    5.2    0.9
H     3.5    0.5   -5.8
I     2.3    1.0    6.3
H    -2.5   -3.1    5.5
H    -5.3    4.3    0.1
H     4.8   -3.3    3.7
I     0.3   -6.9    0.0
N    -4.4   -2.8    4.5
H     5.1   -0.8   -4.6
H     0.4    6.6   -1.9
N     4.5   -2.8    4.5
H    -3.9   -5.8    0.9
P    -3.9    2.4    5.3
I    -2.1    0.2    6.7
H    -3.9   -5.8   -0.9
C     5.3    0.2   -4.8
H     4.9    5.1   -0.9
I    -6.5   -2.8    1.1
H     4.9    5.2    0.9
I    -1.2   -3.6   -6.2
N    -4.4    0.7   -5.9
H     6.5    3.6    0.0
N     4.5    0.7   -5.9
H     0.9    3.9    6.3
C    -3.6   -3.2    5.7
H     0.8    3.7   -6.5
H     3.6   -6.6    0.1
C    -4.2   -6.4    0.1
H    -4.2    1.7   -6.1
P     4.9    2.4    5.3
H    -7.4    1.1    1.8
H     5.0   -5.8    0.9
H     4.9   -5.8   -0.9
I     7.6    0.1   -1.1
H    -5.4   -2.9    4.7
I     6.7   -3.4    1.7
H    -2.3   -7.4    0.0
H    -7.6   -0.6    1.7
H     4.7    1.7   -6.1
C     4.7   -6.4    0.1
H    -4.1    0.2   -6.8
H    -5.4    0.5   -5.8
H    -0.6    3.0   -7.3
P     0.5   -1.1    7.8
H    -6.7   -3.1   -3.1
C     0.2    7.7   -2.2
P     0.5   -1.6   -7.9
I    -2.2    7.5    1.7
H     6.3    0.4   -5.0
I     3.2   -6.5    3.6
I     2.4   -6.5   -4.2
H    -3.9   -2.6    6.6
I    -5.7    4.5    3.6
I     3.2   -3.0   -6.9
H    -3.8   -4.3    5.9
H    -0.8    7.8   -2.6
P    -3.8   -5.1   -5.2
C     0.1    3.8   -7.3
N    -8.1    0.3    1.9
N    -3.3   -7.6    0.1
H     4.8    0.2   -6.8
I    -1.2   -7.1    4.3
C     5.2   -3.2    5.7
H    -5.2   -6.6    0.1
H     0.9    7.3   -4.1
H     0.4    8.4   -1.4
N     1.1    4.5    7.1
I     6.7    3.6   -3.8
I    -2.1   -7.4   -3.8
I     2.3    8.2    1.1
H     4.9   -2.6    6.6
H    -0.4    4.8   -7.2
H     2.1    7.9   -3.1
N     1.1    8.0   -3.4
H     1.0   -5.5    6.7
P    -3.9    5.9   -5.2
H     0.9    5.5    6.7
H    -8.7    0.4    1.0
H     8.2   -0.5    3.2
H     5.0   -4.3    5.9
H    -8.3   -2.6   -1.4
P     5.0   -5.1   -5.2
H     2.1    4.4    7.4
N    -7.7   -3.0   -3.4
H    -7.8   -2.0   -3.7
H    -3.5   -8.1    1.0
I    -6.5    4.4   -4.2
H     6.3   -3.1    5.5
P    -8.3    2.3   -2.6
H    -8.1    0.3    4.0
H    -3.6   -8.2   -0.7
I    -2.1    0.0   -8.8
H     9.0    0.4    1.0
H    -0.8    4.3    7.9
H     8.1   -3.2   -2.6
P     0.6   -8.7   -2.6
H     8.4    1.3    3.2
I    -4.1    7.8   -2.6
H     0.4    3.2    8.6
I    -6.6    1.0    6.3
P     5.0    5.9   -5.2
C     0.2    4.2    8.3
H     1.3    2.9   -8.7
I    -5.7   -6.5    3.6
C    -8.8    0.4    3.2
N     5.5   -7.6    0.1
I    -5.6   -3.0   -6.9
C    -8.6   -3.3   -2.2
N     0.8    3.8   -8.6
C     8.9    0.4    3.2
I     4.7    7.8   -2.6
I     0.8    7.8    5.3
H    -4.1    7.7    3.7
I     6.7    0.2    6.7
I    -8.0    0.3   -5.1
I    -8.6    4.1    0.0
H    -0.4   -6.2   -7.2
H     1.0   -7.1    6.3
I     7.6    3.9    4.3
H    -8.4   -4.3   -1.9
H    -7.9   -3.6   -4.1
I    -3.9    4.0   -7.9
I     2.4    0.6   -9.3
N     1.2   -6.4    7.1
I    -1.3    7.4   -6.2
H    -3.9    6.7    5.9
H     4.7    7.7    3.7
H     1.0    8.9   -3.7
H     5.2   -8.2   -0.7
H     5.3   -8.1    1.0
H     0.9   -7.3   -6.5
H     9.4   -2.6   -1.4
N     9.6    0.3    1.9
H     6.5   -7.4    0.0
I    -4.1    4.3    7.9
H     1.5    4.5   -8.7
H     3.4    8.1    4.7
H    -9.3    1.3    3.2
I     9.1    4.1    0.0
I     3.1   -2.5    9.1
C     9.1   -3.3   -2.2
H    -2.6    7.9    5.5
H    -9.5   -0.5    3.2
P     9.4    2.3   -2.6
I    -1.3   -3.4    9.4
H     2.2   -6.5    7.4
P    -8.4   -5.0    2.6
I    -6.5   -6.5   -4.2
I     5.0    4.0   -7.9
I    -8.0   -3.2    5.3
I     4.7    4.3    7.9
H     1.6   -9.9    1.8
I   -10.1    0.1   -1.1
H    -0.4   -9.6    3.2
H     0.2    3.8   -9.4
H     5.0    6.7    5.9
I     6.7    7.5    1.7
C     0.1   -7.2   -7.3
H    10.1   -0.6    1.7
C    -3.7    7.7    5.7
H     0.4    4.9    9.1
H    -0.8   -6.6    7.9
P    -3.9    9.6   -0.0
N     4.4    8.2    4.5
N    -4.4    8.2    4.5
H     9.6    0.3    4.0
H    -9.6   -3.2   -2.6
I     7.7   -3.6   -6.2
H     9.3   -4.3   -1.9
H    -3.7   -0.7    9.8
I     0.2    0.7   10.5
H    10.3    1.1    1.8
H    -3.9   -2.3   -9.6
I    -6.6    8.2    1.1
H    -4.0    1.7    9.6
H     1.2   10.4    1.7
H     0.2  -10.6    1.0
P    -8.4    6.0    2.6
C     0.3   -6.7    8.3
I     3.2  -10.1   -1.4
I     6.8   -7.4   -3.8
H     9.9   -2.0   -3.7
H    -2.4    0.1   10.5
P    -3.9   -8.6    5.3
P     4.9    9.6   -0.0
H    -6.7    7.9   -3.1
H    -5.5    8.1    4.7
N     0.9  -10.6    1.9
H    -0.6   -8.0   -7.3
H    -7.9    3.9    6.3
H     4.8    1.7    9.6
H    -8.4    6.6   -1.9
H     0.5   -6.0    9.1
P     9.3   -5.0    2.6
H    -6.7    4.4    7.4
C     5.2    7.7    5.7
H     1.6   -6.4   -8.7
I     3.1    7.9   -6.9
I    -8.6   -6.9    0.0
I     9.7    0.3   -5.1
H    -8.0    3.7   -6.5
I    -1.2  -10.9   -1.1
I     0.3   -3.4  -10.4
H    -0.7   10.5    3.2
N    10.0   -3.0   -3.4
H     5.0   -2.3   -9.6
I    -5.7   -2.5    9.1
H    -4.3    9.2    4.3
C     0.1  -10.6    3.2
H     5.2   -0.7    9.8
I    -4.1   -6.6    7.9
I     6.8    0.0   -8.8
N    -3.4   -0.1   10.6
H    -3.5   -4.7   -9.5
H     4.6    9.2    4.3
I    -3.8   -7.0   -7.9
I    -1.3   11.1   -1.1
H     3.6    0.9   10.6
P     5.0   -8.6    5.3
I     7.6   -7.1    4.3
N     0.9   -7.2   -8.6
H     9.9   -3.6   -4.1
P     9.3    6.0    2.6
H    -4.0    8.3    6.6
I     4.8   -6.6    7.9
P    -3.9    2.1  -10.5
I    -6.5    0.6   -9.3
H     8.2    3.0   -7.3
I    -3.8  -10.4    2.6
H    -2.3   -4.0  -10.5
H     0.1   11.4    1.0
C    -4.2    1.2   10.5
I     9.1   -6.9    0.0
H     3.7   -3.2  -10.4
N    -7.7    4.5    7.1
H     0.8  -10.7    4.0
N     0.7   11.3    1.9
H     8.1    7.8   -2.6
H     6.2    7.9    5.5
P    -8.3   -1.1    7.8
I     9.7   -3.2    5.3
H    -3.8  -10.2   -3.9
H    -7.9    7.3   -4.1
P    -8.3   -1.6   -7.9
C     4.6    1.2   10.5
I    11.2   -2.8    1.1
C    -4.1   -2.9  -10.4
H     9.3    6.6   -1.9
H     0.5   -7.8    8.6
N    -7.7    8.0   -3.4
I    -5.6  -10.1   -1.4
I   -11.0   -3.4    1.7
I     5.1   -7.0   -7.9
N    -3.3   -4.2  -10.4
H     4.9    8.3    6.6
I   -10.1    3.9    4.3
H    -7.8   -5.5    6.7
C    -8.6    7.7   -2.2
H     1.3  -11.6    1.7
H    -7.9    5.5    6.7
H    -3.9   10.1   -4.6
C    -0.0   11.3    3.2
H   -11.2    3.6    0.0
P     5.0    2.1  -10.5
C     4.7   -2.9  -10.4
H     0.2   -7.1   -9.4
H    -4.1   -9.3   -6.1
I     5.0  -10.4    2.6
H    -0.6  -11.4    3.2
H    -5.3    0.9   10.6
N     5.4   -0.1   10.6
H    11.0   -3.1   -3.1
H    -7.5    2.9   -8.7
H     5.4   -4.7   -9.5
H    -6.7   -6.5    7.4
I     0.9  -10.7   -5.1
H     0.1   -3.0   11.5
H     0.7   11.2    4.0
H    -3.5    6.3   -9.5
H     0.5    0.8  -11.9
I    -5.7    7.9   -6.9
H    -8.4    8.4   -1.4
H    -2.5  -10.6   -5.0
H     5.0  -10.2   -3.9
H    -3.6   -0.6   11.4
H     1.4   -8.1   -8.7
H    -5.2   -3.2  -10.4
C    -8.8    3.8   -7.3
I     2.3  -10.0    6.3
H     8.0    4.3    7.9
H     4.7   -9.3   -6.1
H     8.4    4.8   -7.2
C     9.1    7.7   -2.2
I    12.0    0.9   -1.4
I    -1.2    3.5  -11.6
I   -11.0    3.6   -3.8
C     8.9    3.8   -7.3
P    -3.9   -4.8   10.5
I    -1.3    7.6    9.4
H     5.0   10.1   -4.6
H    -4.0    1.8   11.4
H     9.7    3.7   -6.5
I     7.6    7.4   -6.2
H    -3.9   -2.4  -11.3
H    -7.3    4.5   -8.7
P    -8.2   -8.7   -2.6
P     0.5    9.4   -7.9
H     9.8    3.9    6.3
H     1.4   12.1    1.8
C    -3.5  -10.8   -4.8
N    -7.7   -6.4    7.1
P     9.4   -1.1    7.8
H     6.4    0.1   10.5
I   -10.1   -3.6   -6.2
P     9.4   -1.6   -7.9
H    -7.9   -7.1    6.3
H    -9.5    3.0   -7.3
I     3.1   11.9   -1.4
N    -8.0    3.8   -8.6
I     0.8   11.2   -5.1
H   -11.4    0.4   -5.0
H    -7.3   -9.9    1.8
H     0.5   -0.9  -12.4
I    -8.1    7.8    5.3
H     3.5  -10.4   -5.8
I    -3.9   11.5    2.6
H    -8.4    3.2    8.6
H    -7.9    8.9   -3.7
N     5.5   -4.2  -10.4
I     7.6   -3.4    9.4
H     4.9    1.8   11.4
P     4.9   -4.8   10.5
H     1.5   -2.3   12.3
H     5.3    6.3   -9.5
P     0.5    9.8    7.8
H     9.3    8.4   -1.4
H     4.9   -2.4  -11.3
H     5.3   -0.6   11.4
H    -8.0   -7.3   -6.5
N    -4.3  -10.3   -5.9
H    -2.6   11.3   -5.0
H    -9.7    7.8   -2.6
H    -3.6   -4.8  -11.2
