         400
 sphere cut out from bulk 
I     1.1   -0.1    1.3
P    -1.4   -2.0    0.2
I    -1.4    0.2   -2.1
P     1.1    2.2   -1.1
H     1.0   -0.2    3.8
I     1.1   -3.6   -1.1
I    -1.3    3.8    0.3
I    -3.9   -0.1    1.3
P     3.6   -2.0    0.2
I     3.5    0.3   -2.1
P    -3.8    2.2   -1.0
I    -1.3   -3.7    2.9
N     1.0   -0.1    4.8
H     0.5    3.8    3.2
H     0.1    0.5    5.1
I     3.5    3.7    0.3
H    -3.0   -0.6    4.3
I    -3.8   -3.6   -1.1
I     1.0    3.7   -3.8
H     1.8    0.4    5.1
H     0.0   -2.0    5.1
H    -0.4    0.2   -5.5
H    -1.1   -3.4   -4.2
H    -2.1    0.5   -5.2
C     0.9   -1.5    5.4
H     1.9    5.2    1.7
H     1.8   -2.0    5.1
H     3.6    0.1   -4.6
I     3.6   -3.5    3.0
H    -0.6   -5.2   -2.6
H    -2.3   -4.9   -2.6
C     1.0    4.7    3.6
H    -0.8    2.5   -5.4
C    -1.3    0.5   -5.9
H    -2.9    4.0    3.6
I    -1.4    2.3    5.5
I     6.0   -0.1    1.3
H     0.4    5.9    2.0
N     1.3    5.6    2.4
H     0.5   -5.9    2.0
H    -3.8    4.5    2.1
H     1.8   -5.4    2.8
C    -3.3   -1.0    5.3
N    -1.5   -5.3   -3.2
H     1.9    4.5    4.1
H    -2.9   -2.0    5.4
C    -1.3   -4.5   -4.5
H     2.7   -4.0   -4.3
I    -3.8    3.8   -3.7
P     6.0    2.2   -1.0
H     3.5   -4.6   -2.9
H     2.8   -0.6   -5.9
P    -6.3   -2.0    0.2
N    -1.1    2.0   -6.3
I    -6.3    0.3   -2.1
N     3.7    0.0   -5.6
C    -3.8    4.5    3.2
H     0.9   -1.4    6.5
H     4.7   -1.6    4.5
H     0.3    5.2    4.3
H    -1.7    5.6   -3.4
N     1.3   -6.2    2.4
H    -3.0   -0.4    6.1
I     1.2   -2.3   -6.4
H     2.8    1.9   -6.0
I     3.5    2.1    5.6
C     3.5   -4.5   -4.0
H    -1.5   -0.0   -6.8
H    -5.1   -1.6    4.5
H    -0.5   -4.9   -5.0
H     4.7   -0.1    5.2
H    -3.0   -5.4    3.4
I     6.0   -3.6   -1.1
H    -4.7    4.0    3.6
H    -2.2   -4.6   -5.0
H    -0.7    6.6   -2.6
H     2.0   -6.7    1.7
N    -4.8   -1.1    5.3
H     1.8    6.5    2.8
H    -0.4    2.1   -7.0
H    -5.1   -0.1    5.2
H    -1.7   -6.3   -3.4
H    -2.0    2.4   -6.6
H     4.4   -4.0   -4.3
I    -6.4    3.7    0.3
H     4.5   -0.6   -5.8
N     5.1   -1.1    5.3
H     2.7    5.4   -4.3
H     5.1    4.0    3.6
C     3.7    1.3   -6.3
N    -1.5    6.6   -3.2
H    -6.2    0.1   -4.6
I    -3.7   -2.3   -6.3
I    -6.3   -3.5    3.0
H     4.6    1.9   -6.0
H     6.0    4.5    2.1
H    -2.3    7.0   -2.6
H    -3.0    6.4    3.4
H     0.4   -6.6    4.3
H     4.7   -1.4    6.2
H    -4.6   -5.4    3.4
N    -3.8    5.9    3.7
H    -5.4   -0.6   -5.8
H    -5.4   -4.0   -4.3
N    -3.8   -6.0    3.7
C     1.0   -7.1    3.6
I     6.1    3.8   -3.7
H     4.4    5.4   -4.3
H    -5.1   -1.4    6.2
C     6.0    4.5    3.2
H     6.9   -0.6    4.3
H    -5.3    1.9   -6.0
I    -1.3   -8.1    0.3
H     2.7   -6.5   -4.3
N     3.6   -5.9   -4.6
H     5.2   -5.4    3.4
N     3.5    6.0   -4.6
I     1.0    8.2   -1.1
H     3.7    1.1   -7.4
N    -6.2    0.0   -5.6
H    -6.3   -4.6   -2.9
H    -3.8    5.9    4.8
C     6.6   -1.0    5.3
H     3.5    7.2   -2.9
H    -3.8   -6.0    4.8
H    -3.8   -7.4    2.1
H    -0.5    6.9   -5.0
H    -4.7    6.4    3.4
I    -1.4   -2.4    8.2
H     0.5   -8.0    3.2
H     2.0   -7.4    4.1
P     8.5   -2.0    0.2
C    -1.3    7.4   -4.5
C    -6.3   -4.5   -4.0
I     8.5    0.2   -2.1
I    -6.3    2.1    5.6
H     6.9    4.0    3.6
I    -1.4    8.2    2.9
H    -5.5    5.4   -4.3
H     3.6   -5.8   -5.6
I    -8.8   -0.1    1.3
I     3.5   -8.1    0.3
H     4.4   -6.5   -4.3
C    -3.8   -7.4    3.2
C    -6.2    1.3   -6.3
H     5.2    6.4    3.4
H     3.5    6.0   -5.6
H     6.9   -2.0    5.4
C     3.5    7.3   -4.0
I     1.0   -8.2   -3.8
I     6.1   -2.3   -6.3
P    -8.8    2.2   -1.1
H    -2.9   -7.9    3.6
H    -2.3    7.3   -5.0
P    -1.4    3.8    8.2
H    -7.0   -0.6   -5.9
N     6.0    5.9    3.7
I     1.1    5.7    7.2
I    -3.9    8.3   -1.1
H     6.9   -0.4    6.1
I     3.6   -2.4    8.2
H    -7.2   -4.0   -4.3
N     6.1   -6.0    3.7
I     8.5    3.8    0.3
H     2.6    7.8   -4.3
H     7.8    0.5   -5.2
I     1.2    2.4   -9.0
H     7.6   -4.9   -2.6
H     6.9   -5.4    3.4
H    -1.1    8.4   -4.2
H    -5.5   -6.5   -4.3
H    -7.1    1.9   -6.0
I     3.6    8.3    3.0
I     1.1   -6.2    7.2
I    -8.8   -3.6   -1.1
H    -8.1    0.4    5.1
H    -7.9    5.2    1.7
I    -3.7   -8.1   -3.7
H    -8.9   -0.2    3.8
H     6.0    5.9    4.8
H    -6.2    1.1   -7.4
I     8.5   -3.7    2.9
H    -8.0   -2.0    5.1
P     3.5    3.7    8.3
N    -6.3   -5.9   -4.6
H     6.1   -7.4    2.1
H     6.1   -6.0    4.8
P     1.1   -9.7   -1.1
N    -6.3    6.0   -4.6
H    -4.7   -7.9    3.6
P     1.2   -3.7   -9.1
I    -1.2   -5.7   -8.0
H    -7.2    5.4   -4.3
I    -3.9    5.7    7.2
P    -1.4    9.9    0.2
H    -7.9    4.5    4.1
I    -3.7    2.5   -8.9
H     4.4    7.9   -4.3
H     6.9    6.4    3.4
I     1.0    2.2    9.7
H    -6.4    7.2   -2.9
H    -8.0   -5.4    2.8
C     6.1   -7.4    3.2
N    -8.9   -0.1    4.8
H     5.2   -7.9    3.6
I    -1.3    6.2   -8.0
H     7.7   -4.6   -5.0
H    -6.3   -5.8   -5.6
I    -3.8   -6.2    7.2
I     6.0    8.3   -1.1
I    -6.3   -8.1    0.3
H     8.8   -3.4   -4.2
I    -8.9    3.7   -3.8
I     8.4    2.3    5.5
H    -6.3    6.0   -5.6
P     1.1   -3.9    9.6
N     8.4   -5.3   -3.2
P    -3.8   -9.6   -1.0
C     8.6    0.5   -5.9
H     8.1    5.6   -3.4
P     3.5    9.8    0.2
C    -6.4    7.3   -4.0
H    -5.5    7.9   -4.3
P    -3.7   -3.7   -9.1
H    -7.9   -6.7    1.7
I     3.7   -5.7   -8.0
N    -8.6    5.6    2.4
H    -7.1   -6.5   -4.3
C    -8.9   -1.5    5.4
H     7.9    2.4   -6.6
I    -6.3   -2.4    8.2
H    -9.4    3.8    3.2
H     7.6    7.0   -2.6
C     8.6   -4.5   -4.5
C    -8.9    4.7    3.6
I    -3.8    2.3    9.7
H    -8.1    6.5    2.8
H     8.3   -0.0   -6.8
I     3.6    6.2   -8.0
I    -1.3   -2.2  -10.5
I     6.1   -8.1   -3.7
H    -0.8   -9.3   -5.4
H     8.2   -6.3   -3.4
N    -8.5   -6.2    2.4
H     9.0    2.5   -5.4
I    -6.3    8.3    3.0
N     8.7    2.0   -6.3
H     9.2   -5.2   -2.6
I     6.0    5.7    7.2
H     9.5    0.2   -5.5
I    -8.6   -2.3   -6.4
H    -9.7    0.5    5.1
I    11.0   -0.1    1.3
P    -3.8   -3.9    9.6
P    -6.3    3.7    8.3
N     8.3    6.6   -3.2
H    -0.0    9.9    5.1
I     6.2    2.5   -8.9
H     7.0   -7.9    3.6
H    -8.9   -1.4    6.5
I    -1.4   -9.6    5.5
P    10.9    2.2   -1.1
H     1.8    9.8    5.1
P    -1.3    3.9  -10.4
H    10.0    0.5    5.1
I     6.0   -6.2    7.2
H    -9.8   -2.0    5.1
H    -9.4   -5.9    2.0
H     9.9   -2.0    5.1
H    -9.4    5.9    2.0
I     3.7   -2.2  -10.5
I   -11.2    0.2   -2.1
P   -11.3   -2.0    0.2
P     6.1   -9.6   -1.0
H    10.8   -0.2    3.8
H    10.4    3.8    3.2
H    -7.3    7.8   -4.3
H    -7.9   -7.4    4.1
I     1.2    9.6   -6.4
I    10.9   -3.6   -1.1
H    -3.0    9.8    5.4
P     6.2   -3.7   -9.1
H   -10.2    0.2   -5.5
I    -6.2   -5.7   -8.0
H     9.2    6.6   -2.6
P    -1.4   -8.1    8.2
P     3.7    3.9  -10.4
P    -6.3    9.8    0.2
H     7.6    7.3   -5.0
H    -9.5    5.2    4.3
I     6.0    2.3    9.7
H     9.4   -4.9   -5.0
C     0.9   10.4    5.4
N    -1.1   -9.9   -6.3
H    -2.0   -9.5   -6.6
I     8.6   -8.1    0.3
I     3.6   -9.8    5.6
I   -11.2    3.8    0.3
N    10.8   -0.1    4.8
H    -0.5    1.9   11.7
I     1.0   11.7    1.3
I    -1.3  -11.6   -2.1
H     3.6    1.0   11.3
I    -6.2    6.2   -8.0
C    -8.8   -7.1    3.6
H     9.5    2.1   -7.0
H    -1.7   -0.2   11.9
H     2.8  -10.0   -6.0
H   -10.5   -5.2   -2.6
P     6.0   -3.9    9.6
H    10.3    5.9    2.0
H    -0.3   -9.8   -7.0
I     8.5   -2.4    8.2
I    10.8    3.7   -3.8
H    10.3   -5.9    2.0
I    -3.8    9.6   -6.3
I    -8.8    8.2   -1.1
I     1.1  -12.0    1.3
H     4.7   10.2    4.5
I   -11.2   -3.7    2.9
C     8.5    7.4   -4.5
I     8.5    8.2    2.9
C    10.8   -1.5    5.4
P     3.6   -8.2    8.3
H   -11.0   -3.4   -4.2
I    -1.4   -5.9   10.6
H    10.2    5.2    4.3
H   -10.7    2.5   -5.4
H     1.1   -1.2  -12.2
P     1.2    8.1   -9.1
I    -1.4    6.0   10.6
H    -5.2   10.2    4.5
H     0.9   11.7    3.8
H    -9.5   -6.6    4.3
I     3.6  -11.6   -2.1
C    10.9    4.7    3.6
I    -6.2   -2.2  -10.5
I    -1.4   12.1   -2.1
H     0.9   10.5    6.5
P     8.5    3.8    8.2
H    -2.1    2.2   12.0
I    -3.9   11.8    1.3
H   -10.3   -4.9   -5.0
P     1.0    8.0    9.6
H    -3.0   11.3    4.3
H     0.2  -11.4    5.1
C    -3.3   10.9    5.3
H     4.6  -10.0   -6.0
H   -10.2    2.1   -7.0
I    -1.4    9.4    8.2
I     1.1   -2.5   12.3
N    -1.2    1.8   12.4
I    -8.8   -8.2   -3.8
I    -3.8  -12.0    1.3
C   -11.2    0.5   -5.9
H     1.0  -12.0    3.8
H     1.8  -11.4    5.1
I     3.6   -5.9   10.6
I    -8.8    5.7    7.2
H    10.8   -1.4    6.5
H     9.4    6.9   -5.0
P    -6.2    3.9  -10.4
H    -2.1  -11.4   -5.2
I     3.5    6.0   10.6
H   -10.5    6.6   -2.6
H    -9.3   -8.0    3.2
N     0.9   11.7    4.8
I    -8.7    2.4   -9.0
N    11.2    5.6    2.4
H    11.6    0.4    5.1
P    -3.7    8.1   -9.1
I   -11.3    2.3    5.5
H    -5.2  -10.0   -6.0
I     3.5   12.1   -2.1
N   -11.0    2.0   -6.3
C   -11.2   -4.5   -4.5
H     8.7    8.4   -4.2
C     3.7  -10.5   -6.3
C    -1.3  -11.3   -5.9
C    -1.4    0.4   12.8
H    -2.8   -0.2  -12.5
N   -11.3   -5.3   -3.2
I    -6.3   -9.8    5.6
H    11.7   -2.0    5.1
I    -8.7   -6.2    7.2
H    10.2   -6.6    4.3
H    -0.3  -11.7   -5.5
C     3.6    1.2   12.4
I     1.2    5.8  -11.5
H    -6.3    1.0   11.3
N    -4.8   10.8    5.3
N     1.0  -12.0    4.8
P     8.4    9.9    0.2
H    11.8    5.2    1.7
I    11.1   -2.3   -6.4
I     6.1    9.6   -6.3
H     4.7   10.4    6.2
I     3.5    9.5    8.2
I     1.2   -6.0  -11.5
H     2.7    1.7   12.6
