         400
 sphere cut out from bulk 
P    -0.4    0.1   -0.7
I     0.6   -2.1    1.4
I     0.8    2.2    1.4
I    -2.9    0.2    1.3
I     2.1   -0.1   -2.8
P    -0.5    0.1    3.5
I    -1.6    2.1   -2.8
I    -1.6   -2.1   -2.8
H     3.2   -2.8    0.2
H     3.9   -1.3   -1.7
H    -0.1    4.5    0.6
H    -4.3   -1.2   -0.3
H     3.2    2.6    2.2
H    -3.9   -2.1   -1.7
H    -0.5   -4.1    2.5
P    -0.3    0.0   -4.9
C     4.0   -3.1   -0.5
N     4.6   -1.9   -1.1
H     5.0   -1.2   -0.3
H    -1.2    4.7   -1.6
N    -4.7   -1.9   -1.1
H     3.5   -3.7   -1.3
H    -4.5    2.0    2.2
N    -0.5    5.4    0.3
H     0.5    5.1   -1.6
C    -0.5    5.4   -1.2
N     4.2    2.7    2.6
H     4.8    2.0    2.2
H    -0.7   -4.4   -3.5
H    -1.4    5.5    0.6
N    -1.0   -4.7    3.1
H    -5.4   -1.3   -1.7
H    -1.4   -4.1    3.9
H    -4.5   -3.6    0.0
I     1.9   -0.3    5.6
H     4.7   -3.6    0.0
H     5.4   -2.1   -1.7
H    -1.8   -5.1    2.6
H     4.1    1.8   -4.2
H     3.9    1.7    4.4
I    -1.9   -2.1    5.4
H     0.2    6.1    0.6
C    -5.3   -3.1   -0.5
I    -1.7    2.1    5.6
H     4.5    3.6    2.2
N    -5.1    2.7    2.6
H    -4.7    3.6    2.2
C     4.1    2.7    4.0
H     3.5    3.5   -4.2
I     6.3    0.2    1.3
H     3.4    3.4    4.4
H    -4.0    3.1   -4.1
H     0.5   -5.5   -3.5
N    -0.4   -5.3   -3.9
H    -0.7    6.4   -1.6
H    -6.1   -2.8    0.2
H    -4.2    3.0    4.4
C     4.3    2.8   -4.5
H     0.7   -5.3    4.2
C    -0.2   -5.8    3.7
H    -5.2    1.8   -4.2
H    -6.1    2.6    2.2
H    -5.7   -3.7   -1.3
H     0.2   -6.4    2.9
C    -5.1    2.7    4.0
H    -1.1   -6.1   -3.5
I    -3.8    5.9    1.4
H    -5.4    1.7    4.4
I     2.9   -6.1   -2.7
I     3.1    6.0   -2.8
C    -5.0    2.8   -4.5
I    -3.8   -6.1    1.5
H     5.3    3.1   -4.1
H     0.5   -4.7   -5.7
H     5.1    3.0    4.4
I     1.0    2.0   -7.0
I     0.7   -2.1   -7.1
H     3.5   -2.0    6.4
I    -2.8    0.2   -7.0
C    -0.3   -5.4   -5.4
H     3.4    2.6   -6.4
P    -0.5   -0.1    7.7
I    -7.2   -0.1   -2.8
H    -1.3   -5.0   -5.8
H    -0.8   -6.3    4.4
N     4.3    2.8   -6.0
H    -5.8    3.5   -4.2
H    -4.3    2.0   -6.3
H    -4.2   -2.6    6.4
H    -5.9    3.4    4.4
I     5.5    5.9    1.4
I     1.8    7.9    1.4
N    -5.0    2.8   -6.0
H     3.8   -3.7    6.4
I     5.5   -6.1    1.5
H     5.0    2.0   -6.3
N     4.1   -2.8    6.8
I     7.7   -2.1   -2.8
I     7.7    2.1   -2.8
H     5.1   -2.6    6.4
H    -0.1   -6.4   -5.7
H    -1.2    4.3    7.3
I     1.9   -8.3    1.4
H     4.6    3.7   -6.3
H    -4.6    3.7   -6.3
I     2.8    6.0    5.6
I    -2.6   -7.9   -2.7
I     3.1   -6.0    5.6
I    -8.5    2.2    1.4
H    -5.8   -2.0    6.4
P     8.9    0.1   -0.7
N    -5.2   -2.8    6.8
H     0.5    5.9    6.8
I    -8.7   -2.1    1.4
I    -6.2    6.0   -2.8
H    -5.9    2.6   -6.4
P     4.2    8.1   -0.7
I    -2.7    8.3   -2.7
P    -0.4    0.0   -9.1
H    -5.5   -3.7    6.4
P     4.3   -8.1   -0.7
I    -6.4   -6.1   -2.7
I    -7.4   -0.3    5.6
H     3.3   -3.0   -8.2
I     7.4   -2.1    5.4
H     7.4   -5.1    2.6
H     0.3    4.5   -8.2
P     8.8    0.1    3.5
H     8.1    4.7   -1.6
H     4.5   -1.7   -8.2
C    -0.8    4.9    8.1
P    -5.1    8.1   -0.7
P    -5.0   -8.1   -0.7
I     6.5    0.2   -7.0
H    -1.0    6.6    6.9
H    -4.8   -1.7   -8.2
N    -0.2    6.1    7.4
H     0.1    4.4    8.6
H     7.9    5.5    0.6
C     4.1   -2.8    8.3
P    -9.6    0.1   -0.7
H     3.1   -3.1    8.6
I     7.6    2.1    5.6
H     7.9   -4.1    3.9
P     4.2    8.0    3.6
H    -1.3    5.4   -8.0
H     4.3   -1.8    8.6
H    -4.2   -3.4   -8.2
I    -3.8   -6.0   -6.9
H    -0.6   -9.8   -1.6
P     4.3   -8.2    3.6
C     4.3   -2.7   -8.5
I    -3.9    6.0   -7.0
I     0.8    1.9    9.8
N     8.3   -4.7    3.1
I     0.6   -2.3    9.7
H     8.8   -4.1    2.5
H     0.3  -10.1    0.6
C    -0.6    5.1   -8.7
I    -2.7    7.9    5.7
H    -5.0   -1.8    8.6
P    -5.1    8.0    3.6
C    -5.2   -2.8    8.3
H     0.1    9.8    2.9
I     9.9   -2.1    1.4
I    -3.0    0.1    9.8
H     5.1   -3.4   -8.2
H     9.2    4.5    0.6
P     9.0    0.0   -4.9
H     8.5   -4.4   -3.5
I    -6.1   -6.0    5.6
P    -5.0   -8.2    3.6
C    -5.0   -2.7   -8.5
H    -4.4   -3.5    8.6
H    -8.8    5.1   -1.6
P     4.2   -8.1   -4.9
N     8.8    5.4    0.3
I    -2.6   -8.2    5.7
P     4.1    8.1   -4.9
H    -1.5    5.2    8.8
P    -9.8    0.1    3.5
H    -9.4    4.5    0.6
C     8.8    5.4   -1.2
I    10.1    2.2    1.4
I    -6.4    6.0    5.6
H     4.9   -3.5    8.6
H    -1.0    4.4   -9.5
H    -6.0   -3.0   -8.2
H     0.2    6.8    8.1
I     5.4    6.0   -7.0
I     5.5   -6.0   -6.9
P    -5.0   -8.1   -4.9
I     6.7   -7.9   -2.7
H    -1.3  -10.7    0.6
H    -1.2   10.1   -3.5
P    -5.1    8.1   -4.9
P    -9.6    0.0   -4.9
H     8.2   -6.1   -3.5
H     8.6    6.4   -1.6
N    -0.4  -10.8    0.3
H    -0.9    9.8    4.4
I     2.8   10.1   -2.7
C    -0.4  -10.8   -1.2
H    -9.7   -4.1    2.5
I     1.9   -8.0   -7.1
H    -8.7   -5.5   -3.5
I     6.6    8.3   -2.7
I     1.8    8.2   -7.1
I    -3.9   10.1    1.5
H    -8.6   -5.3    4.2
I    -7.5    7.9    1.4
H    -9.1    6.1    0.6
I    -8.3    2.0   -7.0
H     8.0   -5.0   -5.8
H    -6.2   -3.1    8.6
N     8.9   -5.3   -3.9
I    -3.7  -10.3    1.4
I     3.2  -10.2   -2.8
C    -0.3   10.4    3.7
H     0.3    6.9   -8.7
N    -9.7    5.4    0.3
H     3.6   -1.9  -10.4
H     9.8    5.1   -1.6
H     0.6  -11.1   -1.6
H     3.2    2.5   10.4
H     0.4   10.7   -3.5
C    -9.7    5.4   -1.2
N     4.3   -2.6  -10.0
I    -7.4   -8.3    1.4
H     9.4    6.1    0.6
I    -8.5   -2.1   -7.1
N    -0.0    6.3   -9.4
H    -0.2    9.8   -5.7
I   -10.8    2.1   -2.8
C     9.1   -5.8    3.7
I   -10.9   -2.1   -2.8
H    -4.0   -2.4  -10.4
I     2.1   -0.1  -11.3
H    -8.8   -4.7   -5.7
H     8.5   -6.3    4.4
H   -10.0   -4.4   -3.5
N    -5.0   -2.6  -10.0
I    -1.5    2.2  -11.2
N    -0.5   10.8   -3.9
H    -9.1   -6.4    2.9
H    -1.9   11.1    2.6
I     5.4   10.1    1.5
H    -4.5    1.9   10.5
H   -10.5    4.7   -1.6
P     8.7   -0.1    7.7
I     6.3    0.1    9.8
H    -1.1  -11.5   -1.6
H     4.8    1.9   10.5
I    -1.7   -2.0  -11.4
H     0.6   10.9    4.2
I    11.4   -0.1   -2.8
C    -9.5   -5.8    3.7
H     8.1    4.3    7.3
H     4.0   -3.6  -10.4
C     8.9   -5.4   -5.4
N    -9.7   -5.3   -3.9
H     0.7    6.0  -10.1
H    -0.0  -11.7    0.6
N   -10.3   -4.7    3.1
I     6.6    7.9    5.7
H     9.8   -5.5   -3.5
H    -0.9   -9.5    6.9
H     9.5   -6.4    2.9
I     5.6  -10.3    1.4
P    -0.5   -0.1   11.9
N     4.1    2.6   10.8
H     5.2   -2.4  -10.4
H     4.5    3.6   10.5
P     4.2    8.1    7.8
N    -1.1   11.5    3.1
H    -5.7   -1.9  -10.4
H   -10.0    6.4   -1.6
P     4.2   -8.1    7.8
I     2.9  -10.2    5.6
I     6.7   -8.2    5.7
I     3.1   10.2    5.6
H     9.9   -5.3    4.2
H    -0.8    6.8   -9.9
H   -10.7    5.5    0.6
H   -10.7   -4.1    3.9
H    -4.8    3.6   10.5
C    -0.4   10.8   -5.4
H     0.3   -4.8   11.1
I    -4.1    5.9    9.8
H     9.7   -4.7   -5.7
H    -5.3   -3.6  -10.4
I    -6.1  -10.2   -2.8
C    -9.6   -5.4   -5.4
I    -3.9   -6.1    9.9
N    -5.1    2.6   10.8
H    -1.5   -5.1   11.1
I   -12.2    0.2    1.3
P    -5.0   -8.1    7.8
P    -5.1    8.1    7.8
H    -0.8   11.8   -3.5
H     0.6  -10.3    6.8
H    -0.6   12.1    2.5
H    -6.1    2.5   10.4
I    -6.5   10.1   -2.7
H     0.3   -9.4    8.1
I    10.0   -2.1   -7.1
I   -10.9    2.1    5.6
P    -9.8   -0.1    7.7
I    11.2   -0.3    5.6
H     8.0    5.4   -8.0
N    -0.1  -10.1    7.4
H   -11.1   -5.1    2.6
H   -10.3   -6.1   -3.5
H     9.1   -6.4   -5.7
H    -8.7    5.9    6.8
I     5.2    5.9    9.8
I   -11.2   -2.1    5.4
I    10.3    2.0   -7.0
H    -1.4   11.2   -5.8
H     8.3    6.6    6.9
H   -10.1   -6.3    4.4
C    -0.5   -5.5   11.4
H     0.4   -9.3   -8.7
I     1.6    8.0    9.7
H    -9.4   -6.4   -5.7
C     8.5    4.9    8.1
H    12.5   -2.8    0.2
P     8.9    0.0   -9.1
I     5.3   -6.1    9.9
H    -1.5   12.1    3.9
I     1.7   -8.2    9.7
H     0.4   11.5   -5.7
P     4.4   -8.0   -9.1
H     7.8    5.2    8.8
H    -0.3   -6.5   11.1
I    -3.8  -10.2   -7.0
I    -3.9   10.2   -6.9
H    12.5    2.6    2.2
P     4.3    8.2   -9.1
P    -4.9   -8.0   -9.1
I    -7.4   -8.0   -7.1
H   -10.6   -5.0   -5.8
H    -9.0    4.5   -8.2
I    -8.4    1.9    9.8
H     3.4   12.5   -1.3
I     3.3   -5.9  -11.2
I     3.0    6.1  -11.2
H     8.7   -9.8   -1.6
I    -7.5    8.2   -7.1
P    -4.9    8.2   -9.1
I    -6.2   10.2    5.6
N     9.1    6.1    7.4
H     4.0    1.8  -12.4
C     4.1    2.6   12.3
I    -6.3  -10.2    5.6
I    -8.7   -2.3    9.7
P    -9.6    0.0   -9.1
H     9.8    5.9    6.8
H     8.2    4.4   -9.5
C     8.7    5.1   -8.7
H    -9.2    4.4    8.6
H    13.2   -1.3   -1.7
H     8.0  -10.7    0.6
P    -0.3    0.2  -13.3
H     3.9    1.6   12.7
I    -7.2   -0.1  -11.3
H    -4.6   12.5    0.0
H    -4.0    3.1  -12.4
H     4.6   12.5    0.0
H    12.8   -3.7   -1.3
H     9.5    4.5   -8.2
H     3.6    3.5  -12.4
H     9.4    4.4    8.6
H     8.1   10.1   -3.5
H   -13.2   -2.1   -1.7
I     5.4   10.2   -6.9
H     3.3    3.3   12.6
H   -10.5    4.3    7.3
H    -1.2  -10.8   -8.0
I     5.5  -10.2   -7.0
N    -9.5    6.1    7.4
H    -9.0  -10.1    0.6
H     4.6  -12.5    2.2
H     7.4   11.1    2.6
H    -4.7  -12.5    2.2
H    -1.2   -4.0  -12.9
C    13.2   -3.1   -0.5
H     0.8   -5.2  -12.6
C    -5.2    2.6   12.3
H    -5.2    1.8  -12.4
I    11.0    7.9    1.4
H   -13.6   -1.2   -0.3
N     0.0   -9.9   -9.4
C     3.9   13.1   -0.5
H     8.4    9.8    4.4
H    -4.2    3.0   12.7
H    -0.7   -9.4   -9.9
H    -9.2    9.8    2.9
C     4.3    2.8  -12.8
H     3.1   13.4    0.2
