         400
 sphere cut out from bulk 
H     0.8    1.4    0.2
I    -0.7    0.2    1.7
H     1.4    1.4   -1.4
N     1.6    1.8   -0.4
H     2.4    1.4   -0.1
H    -2.6   -0.9   -1.8
I     0.9    0.3   -3.5
C     1.6    3.3   -0.5
H     0.6    3.6   -0.9
H     0.7   -4.0    0.2
H     1.7    3.7    0.5
H    -1.7    0.1   -3.8
C    -3.3   -0.4   -2.5
P    -2.9   -2.2    2.3
H    -3.5    0.6   -2.3
H    -0.0    0.3    4.3
I     4.3   -0.0    0.7
I    -2.3   -3.8   -0.4
H     2.4    3.6   -1.1
P    -3.1    2.3    2.3
H     1.8   -4.0   -1.2
H     2.3    0.2    3.9
I    -2.4    3.9   -0.4
N    -2.6   -0.4   -3.8
C     1.7   -4.4   -0.2
I    -4.8   -0.0    0.7
H     2.5   -4.1    0.5
H    -2.3   -1.4   -4.1
H     0.5   -1.1    4.9
H    -4.2   -1.0   -2.6
N     0.6   -0.1    5.0
C     2.0    0.4    4.9
I    -0.6   -3.5    4.2
H    -3.2   -0.0   -4.6
H     1.9    1.5    5.1
H     4.9   -1.0   -2.6
I    -3.5   -0.0    4.7
I     3.3    3.8    3.0
I    -1.2    4.0    4.2
H     0.2    0.1    6.0
H     5.6    0.6   -2.3
N     1.6   -5.9   -0.2
I    -1.1   -3.5   -4.9
P     1.6   -2.2   -5.6
H     2.6   -0.1    5.7
I     3.5   -3.7   -3.7
H     0.9   -6.2   -0.9
C     5.8   -0.4   -2.5
H     1.4   -6.3    0.7
P     1.7    2.3   -5.9
I     3.9   -4.1    3.2
I    -0.8    4.2   -5.0
I     3.6    4.0   -4.0
H    -6.6    1.4   -0.1
H     6.5   -0.9   -1.8
H     2.5   -6.3   -0.6
P     6.0    2.3    2.3
P    -3.0   -5.4   -3.0
P    -2.9    5.5   -3.0
P     6.2   -2.2    2.3
H    -2.7    6.1    2.4
I     5.6   -0.0    4.7
I    -5.1   -4.1    3.2
I     4.0    0.0   -6.3
H     5.9   -0.0   -4.6
P     1.5    5.5    4.9
I    -5.7    3.8    3.0
H    -3.2   -1.5    6.7
I    -0.1    0.0   -7.5
H    -3.3   -6.3    2.5
N     6.5   -0.4   -3.8
I    -5.6   -3.7   -3.7
H    -6.7    3.6   -1.1
P     1.7   -5.4    5.1
I     6.7    3.9   -0.4
N    -7.5    1.8   -0.4
H    -2.7    7.2    1.0
H    -6.6   -4.1    0.5
H    -6.7    0.2    3.9
I     6.8   -3.8   -0.4
I    -5.5    4.0   -4.0
I    -0.6   -7.5   -2.5
H    -1.9   -7.1    3.0
H    -7.7    1.4   -1.4
C    -3.2    7.0    2.0
I     0.7   -7.5    2.7
H     6.8   -1.4   -4.1
I    -5.1    0.0   -6.3
H    -2.1   -3.7    6.9
C    -7.5    3.3   -0.5
I    -0.6    7.9   -2.5
H    -7.4    3.7    0.5
N    -2.9   -7.2    2.9
H     7.4    0.1   -3.8
H    -4.2    6.9    1.9
H    -2.9    4.1    6.7
H    -2.1   -1.5    7.9
H    -7.3   -4.0   -1.2
H     0.9    6.3   -5.5
I     0.7    7.9    2.7
N    -3.0   -1.9    7.6
H    -8.3    1.4    0.2
H    -2.1   -1.3   -8.1
I    -0.1   -0.1    8.5
H     1.1    7.3   -4.2
H     2.5    6.5   -4.8
I     8.4    0.2    1.7
H    -6.5   -0.1    5.7
C    -7.4   -4.4   -0.2
H    -2.7   -8.1    1.0
H     4.8    6.9    1.9
C    -7.1    0.4    4.9
I     2.1    3.8    7.5
P     6.1   -5.4   -3.0
H    -2.8   -3.6   -7.5
H    -3.7   -1.4   -7.8
C    -3.0   -3.4    7.6
N     1.6    7.0   -5.1
P     6.2    5.5   -3.0
H     2.4   -6.5   -5.5
I     4.4   -7.6   -1.3
H    -7.1    1.5    5.1
I    -8.2    0.3   -3.5
H    -3.9   -3.8    7.1
H     5.8   -6.3    2.5
H    -3.3   -7.4    3.8
I    -4.6   -7.6   -1.3
H     5.9   -1.5    6.7
H    -1.9    8.3    3.0
H    -2.1    4.2   -7.7
I     2.3   -3.9    7.8
I     4.4    7.8   -1.3
N    -3.0   -1.8   -8.4
N    -2.9    8.2    2.9
C    -3.1   -8.4    2.0
H    -6.6   -6.3   -0.6
H     6.3    6.1    2.4
I    -4.7    7.8   -1.3
H     1.1   -8.1   -4.2
H    -3.8   -1.5    8.2
H     1.4    9.1    0.7
H     0.9    9.2   -0.9
H    -8.4    3.6   -0.9
H     0.8   -6.8   -6.2
H    -8.4   -4.0    0.2
I     2.4   -3.8   -8.2
C    -3.0    4.4    7.7
C     5.9    7.0    2.0
H     2.5    9.1   -0.6
H    -3.3    8.0    3.8
H    -2.2    4.1    8.3
N    -7.5   -5.9   -0.2
C    -2.9   -3.3   -8.5
H     5.2   -3.8    7.1
C     1.8   -7.2   -6.0
H     5.4   -1.4   -7.8
P    -7.5   -2.2   -5.6
I     2.2    3.9   -8.5
H    -4.2   -8.5    1.9
N     1.6    9.5   -0.2
H     6.4    7.2    1.0
P    -7.4    2.3   -5.9
I     7.9    4.0    4.2
H    -2.8   -3.8    8.6
H    -3.9    4.2   -7.9
N    -8.5   -0.1    5.0
H     5.3   -1.5    8.2
H    -8.5   -1.1    4.9
N     6.1   -1.9    7.6
I    -9.8    0.2    1.7
H    -4.0    4.1    8.1
H     4.9   -8.5    1.9
N     1.6   -8.4   -5.1
N     6.2   -7.2    2.9
C    -2.9    4.6   -8.3
H    -2.7   -9.3    2.4
H    -3.3    9.0    2.5
H    -3.1   -1.3   -9.4
H    -2.0   -3.6   -9.1
H    -2.1    6.3    7.4
I     7.9   -3.5   -4.9
H    -7.7   -6.3    0.7
I    -3.6   -7.6   -5.3
H     6.2    4.1    6.7
H     9.9    1.4    0.2
H     9.1    0.3    4.3
H     0.3    0.2  -10.0
I     8.4   -3.5    4.2
H    -9.1    0.3    4.3
H     5.7   -7.4    3.8
I    -3.6    7.8   -5.3
I     3.9    7.5    5.5
N    -3.0    5.9    7.7
H    -3.7    6.3    7.1
I    -0.1   -7.7    6.8
H    -3.1    6.4   -7.3
I    -0.1    7.7    6.8
C     1.7    8.1   -6.0
C     6.1   -3.4    7.6
H    -8.2   -6.2   -0.9
H    -3.8   -3.6   -8.9
H     2.5   -8.8   -4.8
I     3.9   -7.8    5.5
H     5.2    4.2   -7.9
H     5.1    4.1    8.1
H     6.3   -3.6   -7.5
H     9.7    3.6   -0.9
H     6.4   -8.1    1.0
C     5.9   -8.4    2.0
H    -6.6    6.5   -4.8
P    -7.4   -5.4    5.1
P     1.6    2.2   10.1
H     7.0   -3.7    6.9
I     3.9   -0.1    9.8
I     8.3    4.2   -5.0
H     2.2   -7.6   -6.9
I     9.9    0.3   -3.5
H     5.7    8.0    3.8
N     6.1   -1.8   -8.4
H     7.2   -7.1    3.0
H     9.8   -4.0    0.2
P    -7.6    5.5    4.9
H     0.8    8.6   -6.2
H    10.5    1.4   -1.4
H     6.9   -1.5    7.9
H     2.2    7.8   -6.9
H    -2.8    4.2   -9.4
N     6.2    8.2    2.9
H     0.9   -9.1   -5.5
N    -2.9    6.1   -8.3
I    -5.2    7.5    5.5
H     2.7    0.1  -10.4
P    -2.9   -9.9   -3.0
H    -8.9    0.1    6.0
H     2.4    8.9   -5.5
C     6.1    4.4    7.7
I     5.4   -7.6   -5.3
P     1.6   -2.3   10.4
H     7.0   -1.3   -8.1
N    10.6    1.8   -0.4
H     9.6   -1.1    4.9
H    -6.7   -6.5   -5.5
P    -3.0   10.0   -3.0
I     5.4    7.8   -5.3
I    -6.9    3.8    7.5
N     9.7   -0.1    5.0
I    -5.2   -7.8    5.5
H     5.4    6.3    7.1
H    -2.0    6.5   -8.6
H     5.3   -3.6   -8.9
C     6.2   -3.3   -8.5
N     0.6    0.0  -11.0
H     5.8    9.0    2.5
I    -5.2   -0.1    9.8
H     9.3    0.1    6.0
I    -6.8   -3.9    7.8
C     1.7   11.0   -0.2
P     1.5   -9.9    4.9
I    -9.7   -3.5    4.2
C    10.7    3.3   -0.5
H     6.0   -1.3   -9.4
H     7.0    4.2   -7.7
H    -3.2    6.3    8.7
H     0.6   -1.0  -11.2
H    -6.6    9.1   -0.6
H     2.0    1.6  -10.9
H     6.2   -3.8    8.6
I    -6.7   -3.8   -8.2
C     6.1    4.6   -8.3
C     2.0    0.5  -11.1
P     1.7    9.9    5.1
H     0.7   11.4    0.2
H     7.2    8.3    3.0
H    10.8    3.7    0.5
H   -10.8    0.1   -3.8
H     6.0    6.4   -7.3
N    -7.5    7.0   -5.1
H     6.4   -9.3    2.4
N     6.1    5.9    7.7
I    -8.4   -7.5    2.7
H     6.9    4.1    8.3
H     2.5   11.3    0.5
H     1.8   11.4   -1.2
C    10.7   -4.4   -0.2
I     8.5   -7.5   -2.5
H    -3.7    6.5   -8.9
H    11.5    1.4   -0.1
H    -8.0    7.3   -4.2
I    -6.9    3.9   -8.5
H    -8.2    6.3   -5.5
H    10.9   -4.0   -1.2
H     0.0    0.4  -11.7
I     9.0    0.0   -7.5
I    -0.9    4.1   11.0
H     9.9   -6.2   -0.9
I    -2.4  -11.5   -0.4
H     0.6  -11.7   -0.9
I    -1.2   -3.7   11.1
I   -10.3    4.0    4.2
I    -8.4    7.9    2.7
I    -2.3   11.6   -0.4
I     8.5    7.9   -2.5
I    -3.4    0.1  -11.3
H     1.7  -11.7    0.5
H   -11.7   -0.9   -1.8
I    -9.2    0.0   -7.5
I    -9.9    4.2   -5.0
I   -10.2   -3.5   -4.9
H    -2.1   -9.0    7.4
H    -3.2   -0.2   11.4
C    -7.3   -7.2   -6.0
H    -7.7    9.1    0.7
I    -0.1   -7.6   -9.3
I   -11.3   -3.8   -0.4
N     6.2    6.1   -8.3
H    -3.1   -8.9   -7.3
H     0.7   -6.9    9.8
P     6.2   -9.9   -3.0
H     7.0    6.3    7.4
H     6.3    4.2   -9.4
H     7.0   -3.6   -9.1
H    -6.6   -8.8   -4.8
H     2.4  -11.8   -1.1
H    -3.7   -9.0    7.1
H     2.1    7.7    9.1
H    11.4    0.2    3.9
P     6.1   10.0   -3.0
H    -8.0   -8.1   -4.2
H    11.5    3.6   -1.1
C    11.1    0.4    4.9
N    -7.5    9.5   -0.2
I    -0.1    7.8   -9.3
H     2.2   -7.7    9.1
I   -11.5    3.9   -0.4
H   -11.4   -1.4   -4.1
N    10.7   -5.9   -0.2
H    -6.4    0.1  -10.4
I    -1.2  -11.4    4.2
C     1.6  -12.1   -0.5
H    10.5   -6.3    0.7
H    -2.4   -1.5   11.9
H    11.0    1.5    5.1
H     0.9    6.2   10.6
H     5.9    6.3    8.7
P     1.8   -5.3  -10.9
I    -0.6   -3.4  -11.8
H    11.6   -4.1    0.5
N   -11.7   -0.4   -3.8
P    10.7   -2.2   -5.6
H     5.4    6.5   -8.9
I    -0.8  -11.2   -5.0
I     9.0   -0.1    8.5
P   -11.9   -2.2    2.3
H    -8.2    9.2   -0.9
I     3.9   11.3    3.2
H     2.4    0.3  -12.1
N    -7.5   -8.4   -5.1
H    -1.7   -0.0   12.2
H    -6.9   -7.6   -6.9
I     3.3  -11.6    3.0
H    -8.3   -6.8   -6.2
H    -6.7    8.9   -5.5
P    10.7    2.3   -5.9
N    -2.6   -0.5   12.2
I    -9.7   -7.5   -2.5
H    -6.9    7.8   -6.9
C    -7.3    8.1   -6.0
C     1.7   -7.3   10.0
I    -9.2   -0.1    8.5
P     1.5    5.6  -11.1
H    -2.0   -8.9   -8.6
N    -3.0   -9.4    7.7
I     3.6  -11.4   -4.0
I    -1.1    4.1  -11.8
I     0.8    0.1   12.6
P   -12.2    2.3    2.3
H     2.3   -6.6   10.5
C   -12.4   -0.4   -2.5
I     9.8   -7.5    2.7
I    -0.6   11.9    4.2
I     5.6    0.1  -11.3
H     5.4   -9.0    7.1
I    -9.7    7.9   -2.5
I     3.5   11.6   -3.7
I    -5.1   11.3    3.2
P    -7.5    2.2   10.1
N    -2.9   -9.3   -8.3
H   -12.6    0.6   -2.3
H     5.8   -0.2   11.4
P    10.5    5.5    4.9
I    -1.1   11.8   -4.9
H     7.1    6.5   -8.6
I     9.8    7.9    2.7
H    -3.2   -9.0    8.7
C     1.7    8.0   10.0
H     0.7    8.5    9.8
H    11.7   -0.1    5.7
N     1.5    6.9   10.9
H     6.0   -8.9   -7.3
H    10.0    6.3   -5.5
