         400
 sphere cut out from bulk 
H    -0.5    0.3    1.7
I    -1.2   -1.8    0.5
H     1.8    1.0    1.3
N    -0.1    1.2    2.2
H    -0.4    2.0    1.6
H     0.0   -2.1   -1.7
C     1.4    1.1    2.3
H     1.3   -1.3   -2.3
I     2.5    1.0   -1.8
H     1.6    0.2    2.9
N     0.7   -2.2   -2.4
I    -2.1    1.7   -2.1
H    -0.5    1.3    3.1
H     1.8    2.0    2.8
H     1.3   -3.0   -2.3
P    -3.9   -0.5   -0.7
H    -0.5   -1.3   -3.9
I     3.3   -2.5    1.0
C     0.1   -2.2   -3.8
I    -4.0    1.5    1.9
P     0.6    3.2   -3.3
P     0.7   -4.1    2.0
H    -2.9    3.9   -0.9
H    -0.6   -3.1   -3.8
I     0.5   -2.3    4.6
H     0.9   -2.3   -4.6
P     5.1   -0.5   -0.7
H    -2.9   -1.8    3.9
I     0.6    5.2   -0.7
H    -4.0    3.6    0.4
I    -3.9   -2.3   -3.2
N    -3.5    4.4   -0.2
I     5.1    1.5    1.9
H    -2.9    4.9    0.5
H    -4.3   -2.4    3.1
I     0.6   -5.8   -0.7
I    -1.3    1.6    5.5
H    -3.8    0.9   -4.4
N    -3.7   -2.6    3.9
I     0.5    1.3   -5.9
H    -3.2   -3.5    3.7
H     4.8   -2.4    3.1
H     3.9    4.6   -1.5
H     5.1    3.6    0.4
I    -5.8   -2.5    1.0
I     2.5    4.8    3.4
I    -2.1    5.3    3.0
H    -4.0   -5.0   -1.5
I     5.2   -2.3   -3.2
H     3.9   -5.2   -0.1
H     3.8    0.3   -5.4
I    -2.0   -5.6    3.0
H    -2.9   -6.0    0.5
H     4.1   -1.6    5.2
I     3.1    1.1    6.0
P    -4.0    3.2    4.6
I    -6.6    1.0   -1.8
H     3.9    5.7   -0.1
H     4.1    2.0   -5.2
H     5.3    0.9   -4.4
C     4.5    5.2   -0.9
C    -4.5    5.2   -0.9
C    -4.5    1.1   -5.3
N     5.5    4.4   -0.2
H    -5.1    4.6   -1.5
C     4.6    1.1   -5.3
N     5.4   -2.6    3.9
P     0.6    6.8    2.0
I     3.1    4.7   -4.4
P     0.5   -0.4    7.1
H     3.8   -3.4    5.1
C    -4.5   -2.6    5.1
H     5.1   -5.0   -1.5
H     6.1    3.9   -0.9
H    -5.1   -5.2   -0.1
I    -1.3    5.2   -4.9
C    -4.5   -5.7   -0.9
H    -4.0    6.0   -1.5
C     4.6   -2.6    5.1
H    -2.9    1.8   -6.5
C     4.6   -5.7   -0.9
H    -5.0   -1.6    5.2
H    -3.2    0.1   -6.7
H    -7.2    1.0    1.3
N    -3.5   -6.6   -0.2
H    -4.9    2.0   -5.2
H    -5.2    0.3   -5.4
H     6.1   -1.8    3.9
I     7.0    1.7   -2.1
I     2.6   -6.2    3.4
P     5.0    3.2    4.6
N    -3.6    1.1   -6.5
H    -3.8   -2.7    6.0
H     3.9   -6.4   -1.5
I    -1.3   -5.7   -4.9
H    -5.1    5.7   -0.1
H    -2.9   -7.1   -0.9
H     5.9   -3.5    3.7
H     0.8    5.1    5.9
H     6.1    4.9    0.5
I     2.6   -2.6   -7.0
H    -0.6    4.3    6.6
H    -7.4    0.2    2.9
H     5.1    6.0   -1.5
I    -2.0   -2.0   -7.5
H    -5.2   -3.4    5.1
H    -7.3    2.0    2.8
I     7.8   -1.8    0.5
C    -7.6    1.1    2.3
H    -0.5   -4.9    6.5
H    -7.7   -1.3   -2.3
P    -4.0   -4.2   -5.8
H    -5.1   -6.4   -1.5
H    -3.9   -7.3    0.4
I     3.2   -6.3   -4.4
H     1.3    7.9   -2.3
H     0.9   -5.9    5.9
C     0.1    5.2    6.6
H     5.3   -2.7    6.0
P     0.6   -7.8   -3.3
I    -5.9    1.1    6.0
P     0.7   -0.5   -8.4
N     5.4    1.1   -6.5
H    -4.3    1.2   -7.4
H     1.6    3.8   -7.6
N     5.6   -6.6   -0.2
H    -7.8   -3.0   -2.3
H     6.2   -6.0    0.5
I    -5.9    4.7   -4.4
H     8.6    0.3    1.7
P     5.1   -4.2   -5.8
I    -2.1   -1.9    8.3
I    -6.5    4.8    3.4
H    -0.5    4.9   -7.3
H    -0.6    7.9   -3.8
C     0.1   -5.8    6.6
H     4.8    1.2   -7.4
H     5.9    0.1   -6.7
H    -0.5    6.1    6.5
N    -8.3   -2.2   -2.4
H     5.1   -7.3    0.4
H    -3.2    7.5    3.7
H    -0.0    8.9   -1.7
H     8.7    2.0    1.6
I     3.2    8.4    1.0
H    -0.3   -9.0    1.6
H     6.1    1.8   -6.5
N     0.7    8.8   -2.4
H     8.6    1.3    3.1
I    -1.3    9.1    0.5
I     7.0    5.3    3.0
N     9.0    1.2    2.2
H     1.2    4.3    8.2
I     2.4   -2.6    8.6
H    -0.6   -6.7    6.6
H    -9.0   -2.1   -1.7
H     6.2   -7.1   -0.9
I     7.0   -5.6    3.0
N    -9.1    1.2    2.2
H     9.1   -2.1   -1.7
C     1.4    4.7   -8.1
H    -0.4   -6.1   -7.3
H     8.6   -1.3   -3.9
N    -0.1    4.8   -8.3
H     1.8   -5.4   -7.7
H    -0.5    3.9   -8.7
P    -8.4   -4.1    2.0
N     0.7    5.2    8.0
C     0.1    8.8   -3.8
H     1.3   -4.9    8.1
H     1.8   -9.0    2.8
I     7.7    1.6    5.5
I    -3.9    5.0    7.2
I    -6.5   -6.2    3.4
H    -8.2   -2.3   -4.6
H     1.8    5.6   -7.7
P    -8.5    3.2   -3.3
I    -2.0   -9.2   -2.1
I    -5.9   -6.3   -4.4
H    -9.5    0.3    1.7
H    -9.4    2.0    1.6
H     3.9    1.0    8.9
I     0.5    8.6    4.6
P    -4.0    6.8   -5.8
H     8.5   -3.1   -3.8
I     0.6    1.6    9.7
H     0.9    8.7   -4.6
N     0.7   -5.8    8.0
I    -6.5   -2.6   -7.0
P    -4.0   -7.8    4.6
H     3.8    7.6    5.1
I    -8.5    5.2   -0.7
C    -8.9   -2.2   -3.8
N    -3.7    8.4    3.9
I    -8.6   -2.3    4.6
H    -2.9    0.3    9.6
I    -3.9    8.6   -3.2
H     1.3    9.6   -2.3
N    -0.0   -9.8    2.2
H    -4.3    8.5    3.1
H    -4.0    2.4    8.9
I     3.3    1.1   -9.5
I    -3.9   -5.9    7.2
H    -9.5    1.3    3.1
I    -1.2    1.8   -9.9
C     9.2   -2.2   -3.8
H     1.3    6.0    8.1
I     5.2    5.0    7.2
H    -0.5   -9.7    3.1
H     5.8    7.5    3.7
H    -0.0    5.3    8.7
H     1.9  -10.0    1.3
H     4.7    8.5    3.1
I    -8.4   -5.8   -0.7
C     1.4   -9.9    2.3
P     5.0    6.8   -5.8
I    -5.8    8.4    1.0
N    -0.0   -6.2   -8.3
H    -0.3   -5.4   -8.8
N     9.8   -2.2   -2.4
H    -5.1    1.0    8.9
H    -3.0    9.1    3.9
P     5.1   -7.8    4.6
H    -9.5   -1.3   -3.9
C     1.4   -6.3   -8.1
H     1.8    4.6   -9.2
H     0.0   -5.7    8.7
I    -3.9   -9.5    1.9
I     7.0   -2.0   -7.5
H    -0.4    5.6   -8.8
I    -8.6    1.3   -5.9
I     2.5  -10.0   -1.8
I   -10.3   -1.8    0.5
H    -0.5    9.7   -3.9
H     5.0    2.4    8.9
H    -5.2    7.6    5.1
I     7.7    5.2   -4.9
H     1.7   -7.2   -7.6
I     5.2    8.6   -3.2
H     1.3   -6.6    8.2
P     9.6    3.2   -3.3
H    -2.9   -2.4  -10.0
I     5.2   -5.9    7.2
C     4.5    1.6    9.5
C    -4.5    1.6    9.5
N     5.4    8.4    3.9
I    -3.9    5.1   -8.6
P     9.7   -4.1    2.0
H    10.4   -1.3   -2.3
C    10.5    1.1    2.3
H    -0.4  -10.6    1.7
H    -9.6   -3.1   -3.8
I     7.7   -5.7   -4.9
C    -4.5    8.4    5.1
I     9.5   -2.3    4.6
C     4.5    8.4    5.1
N    -3.5    0.8   10.2
H    -3.8    8.2    6.0
I    -1.3   -9.3    5.5
I     5.1   -9.5    1.9
I     9.6    5.2   -0.7
H    10.9    1.0    1.3
H    10.3   -3.0   -2.3
P    -8.4    6.8    2.0
I     7.0   -1.9    8.3
H    10.7    0.2    2.9
I    -3.9   -5.9   -8.6
P    -8.5   -0.4    7.1
H     4.1   -8.9   -5.2
I    -5.8    1.1   -9.5
H     9.9   -2.3   -4.6
I    -6.6   -2.6    8.6
I     5.1    5.1   -8.6
H    -0.4   -7.0   -8.7
I     2.5    8.4   -7.0
H     3.9    2.1   10.3
H    -7.4    3.8   -7.6
P    -4.0   10.5   -0.7
P    -3.9   -4.1    9.7
I     9.5    1.3   -5.9
H     1.7  -10.8    2.9
I     9.7   -5.8   -0.7
H    -8.2    5.1    5.9
H     1.9   -6.4   -9.2
I     0.5   -9.7   -5.9
H     6.1    0.3    9.6
H    10.8    2.0    2.8
H    -2.9    1.3   10.9
H    -7.8    7.9   -2.3
I     0.6   -2.2  -11.2
H     3.9   -1.6  -10.6
H    -0.5   11.3    1.7
H    -3.9   -3.7  -10.1
I   -11.1    1.7   -2.1
H     5.2    8.2    6.0
H    -4.9   -8.9   -5.2
H     4.1    9.4    5.2
H    -4.0    0.0   10.8
H     8.4    4.3    6.6
N    -3.5   -3.0  -10.6
I     5.1   -5.9   -8.6
H     1.6   11.1    2.9
H    -2.9   -9.2   -6.5
H    -3.7  -10.1   -4.4
H     6.1    9.1    3.9
H    -8.2   -5.9    5.9
N     5.5    0.8   10.2
I    11.5    1.0   -1.8
P     5.1   10.5   -0.7
H    -5.2    2.1   10.3
P     5.1   -4.1    9.7
I     7.0   -9.2   -2.1
H     8.6   -4.9    6.5
H    -7.2   -5.4   -7.7
H    -5.0    9.4    5.2
I    -2.1    8.9   -7.5
H    -5.1   -1.6  -10.6
H    -7.2   -9.0    2.8
I   -10.4    1.6    5.5
H     5.1   -3.7  -10.1
P    -8.4   -0.5   -8.4
H    -7.3    5.6   -7.7
H     5.1    0.0   10.8
P    -8.5   -7.8   -3.3
P     9.6   -0.4    7.1
H     6.2   -2.4  -10.0
I     7.8    9.1    0.5
I     3.2   -9.9    6.0
P     9.7    6.8    2.0
C    -4.4   -9.9   -5.3
P    -3.9  -11.4   -0.7
I    -6.6  -10.0   -1.8
H    -7.8    4.3    8.2
C    -7.6    4.7   -8.1
H     1.8   11.9    1.3
H     1.8   -2.6   11.7
C     4.6   -9.9   -5.3
H    -0.4   -1.6   12.1
H    -2.9   -3.5  -11.3
H     8.5    7.9   -3.8
H    -7.7   -4.9    8.1
P    -3.9    3.2  -11.1
I     2.4    8.3    8.6
H     5.3  -10.1   -4.4
H     0.0    1.5  -12.1
H     8.6    4.9   -7.3
I    -1.3   -5.4   11.0
I     2.4   11.9   -1.8
C     1.4   12.0    2.3
C    -9.0    5.2    6.6
N    -0.1   12.1    2.2
I    -1.3    5.5   11.0
H     8.5    6.1    6.5
N     5.6   -3.0  -10.6
C    -4.5   -2.1  -11.3
N    -8.3    8.8   -2.4
H    -7.2  -10.0    1.3
C     9.1    5.2    6.6
C     4.6   -2.1  -11.3
N    -3.6   -9.9   -6.5
H    -9.7    4.3    6.6
I    -2.1    9.1    8.3
H    -9.5   -4.9    6.5
H    -7.2    4.6   -9.2
P     5.2  -11.4   -0.7
H     6.1    1.3   10.9
H     1.4  -12.3   -2.3
C    -9.0   -5.8    6.6
P    -4.0    6.9    9.7
H     3.9  -10.7   -5.4
H     9.9    5.1    5.9
H    -7.7    9.6   -2.3
H   -12.0    3.9   -0.9
H     8.7   -9.0    1.6
I    12.3   -2.5    1.0
H    -0.5   -3.3   12.2
H    -0.5   12.2    3.1
H     8.5   -6.7    6.6
H    -3.9   -1.4  -11.9
I   -10.4    5.2   -4.9
P     5.1    3.2  -11.1
N    -8.4    5.2    8.0
C    -7.6   -9.9    2.3
I   -11.1    5.3    3.0
C     9.1   -5.8    6.6
I    -6.5    8.4   -7.0
H    -7.7    6.0    8.1
H   -12.0   -1.8    3.9
P     0.5   10.5    7.1
I     7.8    1.8   -9.9
H    -7.4   -7.2   -7.6
H     9.0    8.9   -1.7
I   -11.1   -5.6    3.0
H    -8.2    8.7   -4.6
H     1.3    0.6  -12.7
H    -9.1    8.9   -1.7
C    -7.6   -6.3   -8.1
I     3.2    4.8   11.4
P     9.6   -7.8   -3.3
H     8.6   -6.1   -7.3
