         400
 sphere cut out from bulk 
P    -0.2    1.2    1.0
I    -0.2   -1.1   -1.3
I     2.3   -0.7    2.1
I    -2.7   -0.8    2.1
I     2.2    2.7   -0.3
P     2.2   -3.0   -0.2
I    -2.7    2.7   -0.3
P    -2.6   -3.1   -0.3
H     1.0    3.7   -2.3
H    -1.2    3.0   -3.2
H    -1.0   -1.1   -4.3
I    -0.2    2.8    3.6
I    -0.2   -4.6    1.1
P     4.7    1.2    1.0
I     4.7   -1.1   -1.3
H     1.7    0.0    4.8
H     0.6   -0.8   -5.1
N     0.6    4.0   -3.2
C    -0.9    4.0   -3.3
C    -0.4   -1.3   -5.2
H     0.5   -3.1   -4.4
H     1.0    3.4   -4.0
P    -5.1    1.2    1.0
H    -1.3    4.6   -2.5
I    -5.2   -1.1   -1.3
H    -1.8    0.8    5.4
H    -3.3   -0.1    4.8
I     2.2   -4.6   -3.0
N    -0.1   -2.8   -5.2
I    -2.6   -4.4   -3.1
H     4.6   -0.8   -3.8
H     3.9    3.2   -3.3
H     1.5    5.2    2.7
H     0.9    5.0   -3.3
C     2.1    0.5    5.7
I     2.1    1.7   -5.5
H    -1.2    4.4   -4.3
H    -0.9   -1.1   -6.1
H    -0.9   -3.3   -5.2
H    -4.2    3.3   -3.3
H     3.8   -0.1   -5.1
H     3.1    0.9    5.4
C    -2.8    0.4    5.7
H     1.8   -4.6    4.0
H     2.9    4.6    3.5
H     1.5    1.2    6.2
I    -2.8    1.7   -5.6
H    -1.8    4.6    4.2
H    -5.2   -0.8   -3.8
H     4.8    4.0   -1.9
I     4.7    2.8    3.7
H    -2.6   -5.4    2.9
I     4.7   -4.6    1.0
N     4.6   -0.6   -4.8
H    -1.7   -4.8    4.3
H    -4.4   -0.0   -5.0
H    -5.0    4.0   -1.9
H     0.5   -3.0   -6.0
N     2.4    5.5    3.2
H    -1.9   -1.4    6.4
C     4.8    3.8   -3.0
I    -5.2    2.8    3.7
H     3.8   -2.5   -5.2
I    -5.2   -4.6    1.0
C    -5.1    3.8   -3.0
H     3.0    5.9    2.5
H    -3.5    1.1    6.1
H    -3.5    4.6    4.2
N     2.4   -0.6    6.7
H     3.1   -1.3    6.3
C    -2.6   -5.3    4.0
N    -5.3   -0.6   -4.8
H    -4.3   -2.5   -5.2
H     3.1   -6.0    2.5
H     1.5   -1.2    6.9
N    -2.5   -0.7    6.7
I    -0.2   -3.2    6.5
N    -2.7    5.1    4.5
I    -0.3    7.3    1.1
H     1.6   -6.7    2.7
C     2.2   -5.5    4.4
H     5.7    3.3   -3.3
H    -3.5   -4.8    4.3
H     5.4   -0.0   -5.0
C     4.7   -1.9   -5.5
H    -5.9    3.2   -3.3
I     7.2   -0.8    2.1
H    -2.7    6.5    2.9
N     2.5   -6.4    3.2
I     7.2    2.7   -0.3
H     1.0   -6.8   -3.3
H     3.9    5.7   -3.5
H    -1.2   -7.2   -2.5
C    -5.2   -1.9   -5.5
H     1.5    5.8    5.1
P     7.2   -3.1   -0.3
H     3.2   -5.3    4.8
H    -2.1   -0.2    7.6
H    -3.4   -1.2    7.0
I    -7.6   -0.7    2.1
N     4.7    5.1   -3.7
H    -6.1   -0.1   -5.1
C     2.1    6.3    4.4
H    -4.3    5.7   -3.5
H    -2.7    5.1    5.5
H     1.6   -6.0    5.1
H     5.6   -2.5   -5.2
H     2.8   -0.3    7.6
C    -2.7    6.5    4.0
I    -7.6    2.7   -0.3
H     4.0   -6.2   -3.5
N    -5.1    5.1   -3.7
H     6.6   -0.1    4.8
I     2.1    7.3   -3.0
P    -7.6   -3.0   -0.2
H    -4.2   -6.1   -3.5
H     4.7   -1.8   -6.6
H     4.7    5.0   -4.8
H    -6.1   -2.5   -5.2
H    -1.8    7.0    4.3
H     1.7    7.3    4.0
I    -2.7    7.4   -3.1
N     0.7   -7.8   -3.2
N    -2.6   -6.7    4.5
C    -0.8   -7.9   -3.3
H     1.1   -8.2   -2.3
H    -5.2   -1.8   -6.6
H    -1.8   -7.3    4.2
H     2.9   -7.3    3.5
H    -5.2    5.0   -4.8
I     4.6    7.3    1.0
H    -1.1   -7.5   -4.3
I     4.8   -3.2    6.5
H     3.1    6.6    4.8
H     5.6    5.7   -3.5
H    -6.8    0.9    5.4
I    -0.4    5.1   -7.2
I    -5.1   -3.2    6.5
H     6.4    4.6    4.2
H     6.4    1.1    6.1
I     2.1   -3.0   -8.1
H    -6.0    5.7   -3.5
H    -3.6    7.0    4.3
I    -5.2    7.3    1.0
I     7.3   -4.4   -3.1
H     5.6   -6.1   -3.5
H    -7.0    4.6    3.5
C     7.1    0.4    5.7
H    -3.4   -7.3    4.2
H     6.4   -4.8    4.3
P     2.0    3.1   -8.3
N     4.8   -6.7   -3.7
H    -2.6   -6.8    5.5
I    -2.7   -3.0   -8.2
P     2.2    8.9   -0.2
I    -0.4    1.2    9.0
I     7.0    1.7   -5.6
H    -5.9   -6.2   -3.5
P    -2.7    8.8   -0.3
N    -5.0   -6.7   -3.7
P    -2.8    3.1   -8.3
H    -6.7   -6.0    2.5
H    -6.8    5.9    2.5
H    -6.8   -1.3    6.3
H     1.1   -8.4   -4.0
I    -7.7   -4.6   -3.0
I     2.3   -9.1   -0.3
H     4.9   -7.8   -1.9
H    -4.9   -7.8   -1.9
H     7.3   -5.4    2.9
H    -1.1   -8.9   -3.2
H    -8.2    0.0    4.8
I    -2.6   -9.2   -0.3
H     6.5   -1.2    7.0
C    -7.7    0.5    5.7
I    -7.7    1.7   -5.5
H     4.8   -6.9   -4.8
H     8.0    0.8    5.4
H     8.7    3.0   -3.2
I     2.1    5.1    8.0
I    -0.1   -9.0    3.6
P     9.6    1.2    1.0
N    -7.5    5.5    3.2
H    -5.1   -6.9   -4.8
H    -6.7   -5.3    4.8
I    -0.4    1.6   -9.7
H     0.4    8.8   -4.4
I     9.7   -1.1   -1.3
C     7.3   -5.3    4.0
C     4.9   -8.0   -3.0
I    -2.8    5.1    8.0
H    -8.9    3.7   -2.3
N     7.2    5.1    4.5
H     8.9   -1.1   -4.3
C    -5.0   -8.0   -3.0
I    -0.3   -6.8   -7.2
I     4.6    5.1   -7.2
N     7.3   -0.7    6.7
H    -1.0    8.5   -5.2
H    -4.1   -8.6   -3.3
N    -7.5   -0.6    6.7
H     4.0   -8.6   -3.3
H     7.2    6.5    2.9
H     8.6    4.6   -2.5
H    -8.1   -4.6    4.0
H     8.0    4.6    4.2
I     4.5    1.2    9.0
I   -10.0   -1.1   -1.3
H    -8.3    5.2    2.7
P   -10.1    1.2    1.0
N    -7.4   -6.4    3.2
H    -8.8    3.4   -4.0
I    -5.3    5.1   -7.2
H    -7.0   -0.3    7.6
H     8.0   -1.4    6.4
H     6.3    7.0    4.3
P    -0.2   -4.9    9.1
C    -7.6   -5.5    4.4
C     9.0    4.0   -3.3
H     7.2    5.1    5.5
H     8.1   -4.8    4.3
N    -0.1    9.1   -5.2
C     7.2    6.5    4.0
H    -8.4    1.2    6.2
I    -5.3    1.2    9.0
N    -9.2    4.0   -3.2
H    -6.8    6.6    4.8
H     6.5   -7.3    4.2
P    -0.3   -4.5   -9.6
H     8.7    4.4   -4.3
H    -9.3   -0.8   -5.1
H    -6.9   -7.3    3.5
I     9.7    2.8    3.6
H     0.4    8.9   -6.0
I     4.5    1.6   -9.6
P    -0.1  -10.7    1.0
I     2.2   -6.8    8.0
H    -8.9    5.0   -3.3
H    -9.4   -3.1   -4.4
I     7.2    7.4   -3.1
I     9.7   -4.6    1.1
H     8.9   -1.1   -6.1
I    -2.7   -6.8    8.0
I    -0.3   10.8   -1.3
H     5.8   -8.6   -3.3
H     8.9   -3.3   -5.2
H     7.8   -0.2    7.6
C     9.5   -1.3   -5.2
I    -0.2    8.7    6.5
N     7.3   -6.7    4.5
H    -8.3   -1.2    6.9
I     4.8   -9.1    3.7
C    -7.7    6.3    4.4
P     2.1    2.8   10.4
H    -5.9   -8.6   -3.3
H    -8.3   -6.7    2.7
I     4.7   -6.8   -7.2
I    -5.1   -9.1    3.7
I    -7.7    7.3   -3.0
I   -10.1    2.8    3.6
I   -10.0   -4.6    1.1
P    -2.9    2.8   10.4
I    -5.4    1.6   -9.6
I    -5.2   -6.8   -7.2
I     7.1   -3.0   -8.2
I     2.2   -3.4   10.5
H     3.7    9.3   -5.2
H    -2.1    0.1  -11.1
P     7.0    3.1   -8.3
P     4.6   -4.9    9.1
P     7.1    8.8   -0.3
H     7.3   -6.8    5.5
H    -8.4    5.8    5.1
H    -8.3   -6.0    5.1
N     9.8   -2.8   -5.2
H     2.8    0.1  -11.1
I    -2.8   -3.4   10.6
P    -0.3    7.0    9.1
I     2.2   11.1    2.1
N    -9.9   -2.8   -5.2
H    -9.4   -3.0   -6.0
P     4.7   -4.5   -9.5
H     8.1    7.0    4.3
C   -10.2   -1.3   -5.2
P    -5.2   -4.9    9.1
H     8.7   -7.2   -2.5
I    -2.8   11.1    2.1
I    -7.7   -3.0   -8.1
H    -4.4    9.4   -5.2
H    -1.1   10.7   -4.3
H    10.4   -0.8   -5.1
H    10.4   -3.1   -4.4
H    -8.8   -6.8   -3.3
H    -8.2    7.3    4.0
H    10.8    3.7   -2.3
H     8.1   -7.3    4.2
N    10.5    4.0   -3.2
I     7.2   -9.2   -0.3
H   -10.8   -1.1   -4.3
I     2.2  -10.1   -5.5
P    -7.7    8.9   -0.2
C    -0.5   10.5   -5.2
P    -5.2   -4.5   -9.5
P     4.8  -10.7    1.0
H     1.5   -0.8  -11.7
I     4.6   10.8   -1.3
P    -7.8    3.1   -8.3
I     4.7    8.7    6.5
I     7.1    5.1    8.0
I    -7.5   -9.1   -0.3
H   -11.0    3.0   -3.2
P    -5.1  -10.7    1.0
C   -10.7    4.0   -3.3
I    -2.7  -10.2   -5.6
I    -5.2    8.7    6.5
I    -5.3   10.8   -1.3
P    -0.4    7.3   -9.6
H     5.5    9.4   -5.2
H    10.9    3.4   -4.0
I     9.6    7.3    1.1
I     9.7   -3.2    6.5
I     2.1    8.8   -8.1
I     2.1    5.4  -10.7
N     2.4   -0.3  -11.9
H     0.5   11.1   -5.1
P     2.1   -8.7   -8.3
C     4.6    9.9   -5.5
H    -8.8   -8.2   -2.3
I    -7.7    5.1    8.0
N    -2.5   -0.3  -12.0
H    -3.4   -0.8  -11.7
H    -0.2   -2.1   12.1
I    -2.8    5.4  -10.6
H     8.8   -7.5   -4.3
H   -11.1    4.6   -2.5
P     4.6    7.0    9.1
H    -6.1    9.3   -5.2
I    12.1   -0.7    2.1
I    -2.8    8.8   -8.2
H    10.4   -3.0   -6.0
I    -0.4    4.7   11.4
P    -2.8   -8.7   -8.3
H    10.8    5.0   -3.3
I   -10.0   -3.2    6.5
I    12.1    2.7   -0.3
H   -10.8   -3.3   -5.2
H     1.6  -10.7    6.2
H    -1.0   10.8   -6.1
H   -10.8   -1.1   -6.1
H    -1.8  -11.1    5.4
H    -2.0   10.5    6.4
N    -9.2   -7.8   -3.2
C     9.1   -7.9   -3.3
P    12.1   -3.0   -0.2
H    11.5    0.0    4.8
I    -0.2   -2.8  -12.2
I   -10.1    7.3    1.1
C    -5.3    9.9   -5.5
H    -1.9   -1.0  -12.4
H     4.5   11.1   -3.8
P    -5.3    7.0    9.1
H     3.2  -10.9    5.4
H     3.0   10.5    6.3
H   -11.0    4.4   -4.3
I     2.2   -6.4  -10.7
H     3.0   -1.0  -12.3
I     7.1   -6.8    8.0
I   -12.5   -0.8    2.1
I    -2.7   -6.4  -10.6
H     1.5    1.5  -12.6
H    -8.8   -8.4   -4.0
H    -3.4  -10.7    6.1
H    11.4    5.2    2.7
P     7.0    2.8   10.4
H     1.4   10.7    6.9
I   -12.6    2.7   -0.3
H    -5.3   11.1   -3.8
P     4.6    7.3   -9.5
P   -12.5   -3.1   -0.3
H     1.7  -11.8    4.8
H     8.8   -8.9   -3.2
H     4.6   10.1   -6.6
H   -11.7    0.8    5.4
H     1.6   11.9    4.8
C     2.2  -11.4    5.7
H    11.3    1.2    6.2
I     9.5    5.1   -7.2
I     2.4  -12.6    2.1
I    -7.6   -6.8    8.0
N     4.5   11.2   -4.8
I    -0.1  -13.0   -1.3
H    -3.5    1.6  -12.5
P    -0.3   13.0    1.0
I    -2.6  -12.6    2.1
C    -2.7  -11.5    5.7
H    -3.4   11.7    4.8
I     9.4    1.2    9.0
H    11.6   -4.6    4.0
H    -7.0    0.1  -11.1
P    -5.3    7.3   -9.5
