         400
 sphere cut out from bulk 
I    -1.3   -0.0   -1.5
P     1.1   -2.0   -0.3
I     1.1    0.3    2.0
P    -1.3    2.3    0.9
I     3.6   -0.0   -1.4
I    -1.4   -3.5    1.0
I     1.1    3.8   -0.4
H    -1.1   -0.3   -3.9
P    -3.8   -1.9   -0.4
I    -3.8    0.4    1.9
P     3.6    2.3    0.9
H     1.3    0.3    4.5
I     1.1   -3.7   -2.9
N    -1.0   -0.2   -5.0
I     3.7   -3.5    0.9
H    -0.6    3.9   -3.3
H    -0.2    0.4   -5.2
H     0.8   -4.6    2.6
I    -1.4    3.8    3.6
I    -3.8    3.9   -0.5
H     3.8   -0.4   -4.1
H    -1.8    0.4   -5.3
N     1.3    0.2    5.5
H    -0.2   -2.1   -5.3
H    -3.7    0.3    4.5
H     0.5   -0.4    5.8
H     2.9    3.9   -3.3
H     2.0   -4.1    3.8
C    -1.0   -1.5   -5.6
H    -2.0    5.3   -1.9
I    -3.9   -3.4   -3.1
H    -2.0   -2.1   -5.3
C    -1.2    4.7   -3.7
H     2.1   -0.4    5.8
C     1.4   -4.9    3.5
H    -0.7   -5.6   -2.4
I     1.4    2.2   -5.7
H     0.5    2.1    5.9
I     3.6    3.7    3.6
H    -2.1    4.3   -4.1
H    -2.8   -0.5    5.7
P     6.1   -1.9   -0.4
I     6.1    0.4    1.9
H    -3.1   -4.0    4.0
H    -0.2   -4.4    4.8
I    -6.3   -0.0   -1.4
C     1.4    1.5    6.2
N    -1.5    5.8   -2.7
H    -2.2   -5.3   -3.1
N     4.4   -0.7   -4.9
N    -3.6    0.1    5.5
H     2.3    2.0    5.9
I    -1.2   -2.3    6.1
H    -0.6    6.2   -2.4
H    -4.0   -4.7    2.6
H     2.9   -1.7   -5.9
P    -6.3    2.3    0.9
H     2.9   -5.6   -2.6
H    -2.7    2.0    6.0
H     4.9   -1.5   -4.6
N    -1.6   -6.1   -2.7
H    -0.6    5.2   -4.5
N     0.4   -5.2    4.5
H    -1.0   -1.4   -6.7
H    -5.0   -1.5   -4.6
H     2.0   -5.8    3.3
C     3.6    4.6   -3.8
I    -3.6    2.1   -5.7
H    -4.9    0.1   -5.1
H     3.0   -0.0   -6.4
C    -4.0   -4.5    3.7
H    -2.1   -6.5   -1.9
C     3.6   -0.9   -6.1
H     5.0    0.1   -5.1
H     4.2    5.4   -1.9
H     2.1    6.1    3.3
I    -6.3   -3.5    0.9
H    -0.1    5.8    4.3
I     6.1    3.9   -0.5
H    -4.4   -0.5    5.7
C    -3.6    1.4    6.3
H     4.5    4.2   -4.0
H    -6.2   -0.4   -4.1
H    -0.2   -6.0    4.3
H     2.9    6.3   -2.6
N    -5.6   -0.7   -4.9
H    -4.9   -4.0    4.0
N     3.8    5.8   -2.8
H    -3.1    5.4    4.1
H     3.1    5.0   -4.6
H    -2.1    6.5   -3.1
H     1.4    1.3    7.3
H     5.0   -4.0    4.0
I     3.8   -2.2    6.2
H     4.4   -5.4   -3.2
I     6.1   -3.4   -3.1
N     3.7   -6.1   -2.8
H     6.3    0.3    4.5
H     0.9    7.2    2.6
H     0.9   -5.5    5.4
H    -4.5    2.0    6.0
H     4.2   -6.4   -1.9
C     1.5    6.9    3.5
H    -5.4    4.2   -4.0
H     5.5   -0.5    5.7
H     5.9   -4.7    2.6
N     0.5    6.7    4.5
H    -5.7    5.4   -1.9
H    -0.7   -6.7   -4.5
I     1.1   -8.0   -0.4
C    -1.3   -7.1   -3.7
I    -6.3    3.7    3.6
H     4.2   -1.3   -6.9
H    -3.6    1.1    7.3
H    -3.2   -6.4    4.1
C     5.9   -4.5    3.7
H     5.4    2.0    6.0
N    -4.0   -5.8    4.4
N     6.3    0.1    5.5
H    -5.5   -5.4   -3.2
H    -4.8    5.4    4.2
N    -3.9    6.0    4.4
H     1.0    6.4    5.4
H     4.5    6.5   -3.2
I    -1.3    8.4    1.0
H    -3.9    7.1    2.6
H     5.2    5.4    4.2
H    -0.7   -7.9   -3.3
H    -7.0    3.9   -3.3
C    -6.3    4.6   -3.8
I     8.6   -0.0   -1.5
I     1.2    8.1   -2.9
I     6.4    2.1   -5.7
H     3.0   -6.8   -4.6
H    -5.8   -6.4   -1.9
H    -4.0   -5.7    5.5
N    -6.1    5.8   -2.8
C    -6.4   -0.9   -6.1
C     3.5   -7.2   -3.8
H     6.8   -4.0    4.0
H    -0.1    7.5    4.8
I    -3.9   -8.0   -0.5
H    -2.2   -7.6   -4.1
H     2.1    7.8    3.8
I    -1.4   -8.0    3.6
P     8.6    2.3    0.9
I     1.3   -2.5   -8.5
I    -6.1   -2.2    6.2
C     6.3    1.4    6.3
H    -5.7   -1.3   -6.9
P    -8.8   -2.0   -0.3
I    -8.8    0.3    2.0
H     2.9   -7.9   -3.3
H    -4.8   -6.4    4.2
H    -3.9    6.1    5.5
H    -5.5    6.5   -3.2
C    -3.9    7.3    3.7
N    -6.2   -6.1   -2.8
H     7.1   -0.5    5.7
H     5.1   -6.4    4.2
I     3.7    8.4    0.9
I     8.5   -3.5    1.0
P     1.4    3.6   -8.4
H    -3.0    7.9    4.0
I    -1.1    5.6   -7.4
I    -1.1    2.5    8.9
H    -7.1   -1.7   -5.9
H    -7.1   -5.6   -2.6
H    -6.9   -0.0   -6.4
N     5.9   -5.8    4.4
I    -3.6   -2.5   -8.5
H     7.2    2.0    6.0
N     6.0    6.0    4.4
I    -8.8    3.8   -0.4
I     3.5   -8.2    3.6
H     6.8    5.4    4.1
H    -7.9   -4.1    3.8
H     8.1    0.4   -5.3
H    -6.8    5.0   -4.6
H     8.8   -0.3   -3.9
H    -7.8   -0.4    5.8
H     6.0    7.1    2.6
P    -1.4   -9.6    0.9
H    -8.6    0.3    4.5
H     4.5   -7.7   -4.0
H    -7.0    6.3   -2.6
I    -1.2   -6.3   -7.4
H     7.9    5.3   -1.9
H     6.3    1.1    7.3
P    -1.2   -3.6    9.0
I     1.3   -5.6    7.9
I    -3.8    8.5   -3.1
P    -3.6    3.6   -8.4
H     8.0   -2.1   -5.3
H     7.8    4.3   -4.1
H    -7.6    2.0    5.9
H     6.0   -5.7    5.5
H     7.8   -5.3   -3.1
P     1.2    9.9   -0.3
I     6.0   -8.0   -0.5
I    -8.8   -3.7   -2.9
I    -1.1    2.1   -9.8
I     8.6    3.8    3.6
I     3.9    5.6   -7.4
H    -4.8    7.9    4.0
I     3.9    2.5    9.0
I     1.4    6.2    7.9
C     6.0    7.3    3.7
N     8.9   -0.2   -5.0
H     6.7   -6.4    4.1
H     6.0    6.1    5.5
H     5.1    7.9    4.0
N    -8.6    0.2    5.5
H    -5.5   -7.7   -4.0
P     3.5   -9.6    0.9
I    -3.6   -5.6    7.9
H    -7.9   -5.8    3.3
C    -6.4   -7.2   -3.8
H     7.9   -6.5   -1.9
P     3.8   -3.6    9.0
I     3.8   -6.3   -7.4
C    -8.5   -4.9    3.5
H    -7.8    6.1    3.3
I    -6.2    8.4    0.9
I    -8.5    2.2   -5.7
I     1.3   -2.1   10.2
H    -9.1   -4.6    2.6
N     8.4    5.8   -2.7
P    -1.2   -4.0   -9.7
C     8.8    4.7   -3.7
P    -3.7    9.9   -0.4
C     8.9   -1.5   -5.6
H     9.3    3.9   -3.3
I    -3.6    6.2    7.9
H     7.8    6.5   -3.1
I     3.9    2.1   -9.7
C    -8.6    1.5    6.2
N     8.3   -6.1   -2.7
H    -6.9   -6.8   -4.6
I     6.3   -2.5   -8.5
I     8.8   -2.3    6.1
I     6.1    8.5   -3.1
I    -6.4   -8.2    3.6
I    -3.6   -2.1   10.2
H     9.7    0.4   -5.2
I    -6.0    5.6   -7.4
H     9.2   -5.6   -2.4
H    -9.4   -0.4    5.8
I    -6.0    2.5    9.0
H    -0.1    9.8   -5.3
H    -7.1   -7.9   -3.3
P     1.4    4.0   10.3
P     6.3    3.6   -8.4
P     3.8   -4.0   -9.7
I    11.0    0.3    2.0
H     6.9    7.9    4.0
P    11.0   -2.0   -0.3
H     8.9   -1.4   -6.7
I     1.3   -9.7   -5.7
H    -8.5    1.3    7.3
H     9.8   -2.1   -5.3
H    -1.9    9.8   -5.3
H    -9.4    2.1    5.9
I   -11.3   -0.0   -1.5
I    -1.1    9.5    6.1
H   -10.1    0.4   -5.2
H     0.4   -9.8    5.9
H     9.3    6.2   -2.4
I    -6.1   -6.3   -7.4
C    -8.4    6.9    3.5
P    -6.1   -3.6    9.0
P   -11.2    2.3    0.9
I     6.3   -5.6    7.9
H     1.4    0.9  -11.4
P    -6.4   -9.6    0.9
H     7.7   -7.6   -4.1
H   -10.1   -2.1   -5.3
H     9.3    5.2   -4.5
P    -3.6    4.0   10.3
I    -6.1    2.1   -9.7
H    -7.8    7.8    3.8
H   -10.5    3.9   -3.3
H     2.2   -9.8    5.9
H   -11.0   -0.3   -3.9
I    11.1    3.8   -0.4
P     6.2    9.9   -0.4
H     9.8   -4.4    4.8
N    -9.5   -5.2    4.5
I     1.0  -11.6    2.0
C    -1.0   10.3   -5.6
H    -9.0    7.2    2.6
C     8.7   -7.1   -3.7
H    -9.0   -5.5    5.4
P     1.3   -8.2   -8.4
I    -3.6   -9.8   -5.7
I     6.4    6.2    7.9
I   -11.3   -3.5    1.0
H    -2.8   -9.9    6.0
H    10.4   -0.4    5.8
H    -3.6    0.7  -11.4
I    11.0   -3.7   -2.9
H   -10.1   -4.4    4.8
I    -8.9   -8.0   -0.4
I    -1.2   11.8   -1.5
H    10.8   -4.6    2.6
N   -11.0   -0.2   -5.0
I     8.6    8.4    1.0
H     2.9   10.1   -5.9
I    -1.4  -11.9   -1.5
H    -1.0   -1.0   12.0
H    11.2    0.3    4.5
I     3.9    9.7    6.2
H    10.4    2.1    5.9
C     1.3  -10.4    6.2
I     6.3   -2.1   10.2
P    -6.1   -4.0   -9.7
H     9.8    5.8    4.3
P    -1.1    8.2    9.0
I     8.5   -8.0    3.6
H    -8.9    6.4    5.4
H     9.8   -6.0    4.3
H   -10.6   -5.6   -2.4
H     9.2   -6.7   -4.5
I    -3.9  -11.5    1.9
I    -8.8    8.1   -2.9
H    -1.0   11.6   -3.9
P    -3.7   -8.2   -8.4
H   -10.0    5.8    4.3
H    -4.9   10.4   -4.6
I     1.4    5.8  -10.8
H     5.0   10.4   -4.6
I     1.2   12.2    2.0
I    -8.6   -2.5   -8.5
N    -9.4    6.7    4.5
C   -11.0   -1.5   -5.6
I   -11.3    3.8    3.6
N    10.4   -5.2    4.5
I     3.5  -11.9   -1.4
I     1.3   -6.0  -10.8
H    -4.6   -9.9    6.0
H    -0.9   10.5   -6.7
H   -10.5    6.2   -2.4
H     1.2  -11.6    4.5
I     3.7   11.9   -1.4
H   -10.1   -6.0    4.3
N    11.2    0.2    5.5
P    -8.5    3.6   -8.4
P    -1.1    7.8   -9.7
H   -10.5    5.2   -4.5
H     4.2   -0.9   11.8
C   -11.1    4.7   -3.7
C     1.4    1.1  -12.5
H     9.3   -7.9   -3.3
H    -0.3  -11.5   -5.2
H     3.0    0.4   12.3
N    -1.0   11.7   -5.0
I     1.4    9.4   -8.5
P     6.3    4.0   10.3
C    -3.7  -10.5    6.3
H     5.3   -9.9    6.0
P     3.9    8.2    9.0
H    -1.9  -11.5   -5.3
I     8.8    5.6   -7.4
H    -1.2  -12.1   -3.9
I    -1.2   -5.9   11.3
H     3.9   11.5   -4.1
I     8.8    2.5    8.9
I    -3.6    5.8  -10.8
C    11.3   -4.9    3.5
I    11.3    2.2   -5.7
P     8.5   -9.6    0.9
I    -1.1    6.0   11.3
H     0.6   11.4    5.8
I   -11.1   -2.3    6.1
H     1.3  -10.5    7.3
H     0.5    1.7  -12.8
H   -11.8    0.4   -5.3
H   -10.9   -1.4   -6.7
I    -3.7   -6.0  -10.8
I     6.3   -9.8   -5.7
H     0.5   -0.8  -12.9
I    -3.7   12.2    1.9
I    -1.2   -2.7  -12.6
I    -8.6   -5.6    7.9
I    -6.0    9.7    6.2
H    -3.7  -11.6    4.5
C    11.3    1.5    6.2
C    -3.6    1.0  -12.4
H     2.2   11.4    5.8
N     1.2  -11.7    5.5
H     1.4   12.1    4.5
N     4.4   11.2   -4.9
H    -2.7   11.4    5.7
I    -1.2   -9.4    8.9
P     1.3   -7.8   10.3
C     3.6   10.9   -6.1
I     8.7   -6.3   -7.4
H     6.3    0.7  -11.4
P     8.7   -3.6    9.0
P     3.9    7.8   -9.7
