         400
 sphere cut out from bulk 
P    -0.5   -0.0   -2.1
I     0.7   -2.0    0.0
P    -0.4    0.0    2.1
I     0.7    2.2   -0.0
I    -2.9    0.1    0.0
H    -0.4    4.1   -1.2
H     3.2   -2.7   -1.3
H     3.2    2.7    1.4
I     1.8   -0.0   -4.2
I     1.9    0.1    4.2
H    -4.0    2.1    1.2
H     0.1   -4.5    1.2
H     3.8   -1.5   -2.6
H     3.8    1.7    2.7
C     4.1   -2.3   -1.8
I    -1.9   -2.1   -4.1
I    -1.7   -2.0    4.3
I    -1.8    2.1   -4.2
I    -1.7    2.2    4.2
H    -1.2    4.1   -2.7
H     4.7   -1.8   -1.0
N    -0.9    4.7   -1.9
C     3.8    2.7    2.2
H    -1.1   -4.4    2.6
H    -4.9   -1.8   -1.0
H    -3.6    2.9    2.6
C    -0.7   -5.1    1.8
N    -4.3    2.9    1.8
H    -1.7    5.2   -1.4
H    -1.5   -5.3    1.1
H    -3.9   -3.0   -3.0
H     3.6    3.4    3.0
H    -4.2    3.8    1.3
H     5.5    2.1    1.2
H     0.9    5.3   -2.9
H    -4.4   -4.0   -1.7
C    -5.5   -2.3   -1.8
N     5.2    2.9    1.8
P    -0.5   -0.1   -6.2
C     0.1    5.8   -2.4
N    -4.7   -3.3   -2.4
P    -0.4    0.0    6.3
N     4.8   -3.3   -2.4
H    -5.8   -1.5   -2.6
H     4.2   -3.9   -3.1
H    -5.8    1.7    2.7
I     6.6    0.1    0.0
H     0.4    6.4   -1.6
C    -5.7    2.7    2.2
H     5.4    3.8    1.3
N    -0.1   -6.3    2.4
H     5.2   -4.0   -1.7
H     0.7   -6.0    3.0
H     3.9   -1.7    5.5
H     3.8    1.6   -5.6
I    -3.7    5.9   -0.1
H    -6.4   -2.7   -1.3
H     5.7   -3.0   -3.0
H    -6.4    2.7    1.4
H     5.9    2.9    2.6
H     0.3   -6.9    1.6
H    -0.5    6.3   -3.2
H    -1.0   -4.7   -5.3
H    -1.1    4.2    5.7
I    -4.0   -6.0   -0.2
H    -5.3   -3.9   -3.1
H     3.6    3.4   -5.4
H     3.8   -3.4    5.2
H    -3.5   -2.7    5.9
H    -3.7    2.8   -5.9
H    -0.8   -6.8    2.9
H    -6.0    3.4    3.0
C     3.9   -2.6    6.0
C     3.8    2.6   -6.1
H     1.0    5.4    5.6
I     3.0   -6.0    4.1
H     3.2   -2.7    6.7
I     3.1   -5.9   -4.3
H    -5.7   -1.7    5.5
H     1.2   -5.3   -5.9
H     3.1    2.7   -6.9
I     3.5    6.0    4.1
I     3.4    6.0   -4.3
I     5.5   -6.0   -0.2
N    -0.8    4.8    6.5
C    -0.8   -5.5   -6.0
H    -5.8    1.6   -5.6
I     1.8   -8.1   -0.0
I     5.9    5.9   -0.1
H    -0.3    4.2    7.2
N    -4.3   -2.8    6.6
I     2.2    8.1   -0.0
H    -0.4    6.5    5.3
N    -4.3    2.8   -6.6
C     0.1    5.9    6.0
H     0.6   -4.4   -7.2
H    -5.7   -3.4    5.2
H    -0.8   -6.4   -5.5
N     0.5   -5.3   -6.6
H    -4.1   -2.0    7.3
H    -4.1    2.0   -7.3
C    -5.6   -2.6    6.0
I     0.6    2.1   -8.3
I     0.7   -2.2   -8.3
H    -5.9    3.4   -5.4
I     0.6    2.2    8.4
I     0.7   -2.1    8.4
I    -7.6    0.1    4.2
I    -7.7   -0.0   -4.2
H     5.9    2.8   -5.9
C    -5.7    2.6   -6.1
H     6.0   -2.7    5.9
H    -1.6   -5.5   -6.8
N     5.2    2.8   -6.6
I    -3.0   -0.1   -8.4
N     5.3   -2.8    6.6
I    -3.0    0.1    8.4
H    -1.6    5.2    7.0
I     7.7   -2.1   -4.1
H    -4.2   -3.7    7.1
H    -4.2    3.7   -7.2
I     7.8    2.1   -4.2
I    -8.9   -2.0    0.0
I     7.8   -2.0    4.3
I    -8.9    2.2   -0.0
I     7.8    2.2    4.2
P     9.0   -0.0   -2.1
H     5.4   -2.0    7.3
H     5.4    2.0   -7.3
P     9.1    0.0    2.1
P     4.3   -8.0    2.0
I    -2.8   -8.0    4.1
I    -2.5    8.0   -4.2
H     0.6    9.2    1.6
P     4.2   -8.1   -2.2
I    -2.4    8.2    4.1
H     0.5    6.5    6.9
P     4.6    8.0   -2.2
I    -6.0    6.0    4.1
H     7.9    5.2   -1.4
H     0.7   -6.1   -7.3
P     4.7    8.1    2.0
I    -2.9   -8.1   -4.2
H     5.3   -3.7    7.1
H     5.3    3.7   -7.2
I    -6.2    6.0   -4.3
H    -6.4   -2.7    6.7
P    -4.8    8.1    2.0
H     8.3    4.1   -2.7
P    -5.0    8.0   -2.2
I    -6.4   -5.9   -4.3
H     8.1   -5.3    1.1
I    -6.5   -6.0    4.1
P    -5.2   -8.0    2.0
H    -0.5    9.3    2.9
H    -6.4    2.7   -6.9
H     0.0   -9.7   -1.6
H     8.5   -4.4    2.6
P    -5.3   -8.1   -2.2
N     8.7    4.7   -1.9
H     9.2    4.1   -1.2
N     0.2    9.9    2.4
P   -10.0    0.0    2.1
P   -10.1   -0.0   -2.1
H    -0.8   -9.8   -3.2
C     8.9   -5.1    1.8
H    -0.3    4.0   -9.5
I    10.2   -2.0    0.0
I    10.2    2.2   -0.0
P    -0.4   -0.1  -10.4
H    -8.6    5.3   -2.9
H     0.6   -4.3    9.6
P    -0.5    0.0   10.5
H    -4.1    2.1    9.5
H    -9.4   -4.5    1.2
H    -4.1   -2.1   -9.5
H     1.0   10.1    3.0
I     6.6   -0.1   -8.4
I     6.6    0.1    8.4
C    -0.3  -10.4   -2.4
H     3.1    2.8    9.8
H     9.7   -4.5    1.2
H    -9.9    4.1   -1.2
I    -3.7   10.2   -0.2
I    -3.7    6.0    8.3
H     3.1   -2.8  -10.0
I    -3.9   -5.9    8.3
I    -3.7    5.8   -8.4
I    -7.3    8.1   -0.0
H    -1.1   10.8    1.1
P     9.0   -0.1   -6.2
P     4.3   -8.0    6.2
I    -4.0  -10.2   -0.1
H     8.4    4.2    5.7
H    -0.7   -9.7    5.3
H     8.5   -4.7   -5.3
P     9.1    0.0    6.3
H    -1.6    5.1   -9.7
H     5.4   -2.1   -9.5
H     5.5    2.1    9.5
H    -4.2    3.8    9.6
I    -4.0   -6.0   -8.5
H    -8.9   -6.0    3.0
I    -7.7   -8.1   -0.0
H    -0.5    9.7   -5.5
H    -4.2   -3.8   -9.6
H     0.7   -6.0    9.4
P     4.4   -8.1   -6.4
I     6.8   -8.0    4.1
P     4.7    8.1    6.2
C    -0.3   11.1    1.8
H    -2.0  -11.0   -1.4
N    -0.8    4.7  -10.2
H     0.6  -10.9   -2.9
P     4.7    8.0   -6.4
H    -9.2    6.4   -1.6
P    -4.9    8.1    6.2
P    -4.8    8.0   -6.4
I     6.7   -8.1   -4.2
C    -9.5    5.8   -2.4
I     3.1  -10.1    4.1
N     0.5   -5.2   10.1
N    -4.3    2.9   10.1
P    -5.2   -8.0    6.2
N    -4.3   -2.9  -10.1
I     3.0  -10.1   -4.3
H    -1.6   -5.4    9.9
H     8.7   -6.8    2.9
I     7.0    8.0   -4.2
C     9.6    5.8   -2.4
I     3.4   10.2    4.1
H    -8.3   -5.3   -5.9
H    -8.5    5.4    5.6
H     9.1    6.3   -3.2
C   -10.2   -5.1    1.8
P    -5.2   -8.1   -6.4
N     9.4   -6.3    2.4
N   -10.4    4.7   -1.9
I     5.6   -5.9    8.3
I     7.1    8.2    4.1
H     5.3    3.8    9.6
I     5.5  -10.2   -0.1
I     1.9   -7.9    8.3
N    -1.2  -11.4   -1.9
H     5.3   -3.8   -9.6
C     3.8    2.7   10.7
I     3.5   10.3   -4.3
H    -9.3   -6.9    1.6
H     0.5   11.6    1.2
I     5.9   10.2   -0.2
H     0.5    6.3   -9.9
N     5.2    2.9   10.1
N    -9.7   -6.3    2.4
N     5.2   -2.9  -10.1
H   -10.6   -4.4    2.6
P   -10.0    0.0    6.3
H    -1.2    4.1  -11.0
I     5.9    6.0    8.3
C     3.9   -2.8  -10.8
I     1.9   -8.0   -8.4
H    -3.6   -2.9  -10.9
H     7.9   -5.5   -6.8
I     5.6   -6.0   -8.5
H     7.9    5.2    7.0
P   -10.0   -0.1   -6.2
I     5.9    5.8   -8.4
H   -10.8    4.1   -2.7
H    -3.6    2.9   10.9
H     3.8    1.7   11.1
H     0.1   -9.7    6.9
C     8.7   -5.5   -6.0
I     2.3    8.2    8.3
H     9.9    6.4   -1.6
C    -0.2  -10.3    6.0
N     8.8    4.8    6.5
I     2.3    8.1   -8.4
C    -0.8   -5.4   10.7
H    -0.7   11.7    2.6
H    -6.4    2.8    9.8
H    10.5    5.3   -2.9
H     1.3   -5.2   10.8
H     3.9   -1.8  -11.3
H     9.8   -6.9    1.6
H    -0.7  -12.0   -1.2
I    11.4   -0.0   -4.2
H     8.7   -6.4   -5.5
C     0.1    5.7  -10.7
H     0.6  -10.8    5.6
I   -11.2    2.2    4.2
I    11.5    0.1    4.2
H    -6.4   -2.8  -10.0
I   -11.3   -2.0    4.3
C    -0.5   10.7   -6.0
I   -11.3    2.1   -4.2
H    10.2   -6.0    3.0
H   -10.0    6.3   -3.2
H   -11.0   -5.3    1.1
I   -11.4   -2.1   -4.1
H    -9.0   -4.4   -7.2
H    -1.0   -4.5   11.4
I    -8.9   -2.2   -8.3
H     1.0    5.2  -11.2
C    -5.7    2.7   10.7
I    -8.9    2.1   -8.3
I    -8.9   -2.1    8.4
N    -9.0   -5.3   -6.6
H    -1.6  -12.0   -2.7
H     9.2    6.5    5.3
H   -11.2    5.2   -1.4
I    -8.9    2.2    8.4
H     9.2    4.2    7.2
H     3.7    3.5   11.4
H     1.6   10.9   -5.9
H     1.1   10.1   -7.3
C    -5.6   -2.8  -10.8
I   -12.5    0.1    0.0
I    -6.2   10.2    4.1
C    -9.4    5.9    6.0
H     3.8   -3.6  -11.5
I    -6.4  -10.1    4.1
H    -5.8    1.7   11.1
I    -6.1   10.3   -4.3
H    -0.6   11.5   -5.3
I     1.9   -0.1  -12.5
H   -10.5   -4.7   -5.3
H    -1.2   10.7   -6.8
H     5.9    2.9   10.9
I     1.9    0.1   12.6
H     6.0   -2.9  -10.9
N     0.9   10.8   -6.6
H   -10.4   -6.8    2.9
H    -5.7   -1.8  -11.3
I    -1.8   -2.1  -12.5
I    -6.5  -10.1   -4.3
I    -1.7    2.1  -12.5
C     9.7    5.9    6.0
H   -10.7    4.2    5.7
I    -1.7    2.3   12.5
H    -9.8    4.2    7.2
H    -4.0   12.1   -1.7
I    -1.8   -2.0   12.6
H    -0.8   -6.3   11.3
H    -8.9    9.2    1.6
H    -8.8   -6.1   -7.3
H    -9.9    6.5    5.3
H    12.7   -2.7   -1.3
H    10.5    5.4    5.6
H    -9.1    6.5    6.9
H    -0.4    6.4  -11.4
H    12.7    2.7    1.4
N   -10.3    4.8    6.5
N    -1.1  -11.3    6.5
H    10.1   -4.4   -7.2
H    -2.0  -10.9    7.0
N    10.0   -5.3   -6.6
C   -10.4   -5.5   -6.0
H    -4.5  -12.4    1.3
H    -5.9    3.5   11.4
I    10.2    2.1   -8.3
H    -1.5  -11.9    5.7
H     9.1    9.3    2.9
I    10.2   -2.2   -8.3
H    -5.8   -3.6  -11.5
I    10.2    2.2    8.4
H     7.5  -11.0   -1.4
H   -10.4   -6.4   -5.5
H    10.8   -5.3   -5.9
H     5.0  -12.4    1.3
I    10.2   -2.1    8.4
H     5.5   12.1   -1.7
H     3.2  -12.7    3.0
H     4.6   12.3   -3.1
H     8.7   -9.8   -3.2
H     7.9    5.1   -9.7
H    -8.5   10.1    3.0
H    -4.9   12.3   -3.1
I    -3.6   10.2    8.3
H    13.3   -1.5   -2.6
H    13.3    1.7    2.7
I    -3.6   10.1   -8.5
H    -9.5   -9.7   -1.6
N    -4.4   12.8   -2.4
I    -4.0  -10.2    8.3
H     9.6   -9.7   -1.6
H     8.4   10.8    1.1
H   -13.2    2.9    2.6
I    -7.6   -7.9    8.3
N    -9.3    9.9    2.4
H   -13.6    2.1    1.2
H    10.0    6.5    6.9
I    -7.3    8.2    8.3
H     2.8  -13.4    1.4
H    -9.0   -4.3    9.6
H     0.9   11.7   -7.2
I    -7.3    8.1   -8.4
P     4.4   -8.0   10.4
C    13.4    2.7    2.2
H     8.0   -5.4    9.9
H    10.2    9.2    1.6
P     9.1   -0.1  -10.4
