         400
 sphere cut out from bulk 
I     1.3   -0.2    1.3
P    -1.2   -2.1    0.3
I    -1.2    0.2   -2.1
P     1.3    2.1   -1.0
I    -1.1    3.5    0.5
I    -3.6   -0.2    1.3
I     1.2   -3.6   -1.3
P     3.7   -2.1    0.2
P    -3.6    2.1   -1.0
I     3.8    0.2   -2.1
H     0.4    3.6    2.5
H     0.3   -1.1    4.4
H    -1.0    0.4   -4.6
I    -1.2   -3.7    2.9
H     2.1   -1.3    4.4
H    -0.4   -3.7   -3.5
H     1.8    3.4    3.5
I     3.8    3.6    0.3
N     1.0    3.9    3.4
C     1.2   -1.5    4.9
H    -3.8   -0.1    3.7
I    -3.7   -3.7   -1.2
I     1.3    3.7   -3.6
H    -2.0   -4.0   -3.2
H     0.4    3.6    4.2
N    -1.0    0.4   -5.7
N    -1.3   -4.1   -3.9
H     1.0   -2.6    5.2
H    -3.0    0.5    5.1
I     3.7   -3.7    2.9
H    -0.1   -0.1   -6.0
H     3.9    0.3   -4.6
H    -2.8    4.2    3.4
N    -3.8   -0.0    4.8
H    -1.5   -3.5   -4.8
I    -1.3    2.2    5.6
H    -2.9   -1.9    5.1
H     1.4    0.3    6.0
H    -1.8   -0.1   -6.0
H    -0.1    2.3   -5.9
I    -3.6    3.7   -3.7
I     6.2   -0.2    1.3
N     1.2   -0.7    6.2
H     3.0   -4.0   -4.0
H     1.8    5.6    2.5
H    -3.7    4.9    2.0
I    -6.1    0.2   -2.1
C     1.2    5.4    3.4
P    -6.1   -2.1    0.2
C    -1.0    1.8   -6.2
H    -1.9    2.3   -5.8
P     6.2    2.1   -1.0
H     3.1   -0.3   -5.9
C    -3.7    4.7    3.0
C    -3.8   -1.4    5.4
H     0.3    5.9    3.4
I     1.4   -2.1   -6.4
H    -1.0    5.9   -3.3
H     0.3   -0.9    6.8
H    -4.7    0.5    5.0
I     3.4    2.2    5.5
N     3.9    0.3   -5.6
H     3.0    2.1   -5.9
H     0.4   -6.1    3.4
H    -2.8   -5.4    3.5
H    -0.9   -6.1   -3.3
H    -4.6    4.2    3.3
I    -6.1    3.6    0.3
C    -1.1   -5.6   -4.3
H     1.9   -6.4    2.5
H     6.1   -0.1    3.7
H     3.0    5.7   -3.1
H    -4.7   -1.9    5.1
H     2.0   -1.0    6.8
H     5.2    0.5    5.0
I     6.2   -3.7   -1.2
H     1.8    5.6    4.3
H     4.3   -5.4   -2.4
I    -3.3   -2.1   -6.3
H     5.2    4.2    3.3
C     3.7   -4.8   -4.4
H    -5.9    0.3   -4.6
H    -0.2   -5.7   -4.9
H     5.2   -1.9    5.1
C     1.3   -6.6    3.4
C     3.9    1.6   -6.2
H    -1.0    1.8   -7.3
H     4.8   -0.3   -5.9
H    -3.8   -1.2    6.5
I    -6.1   -3.7    2.9
N     6.0   -0.0    4.8
H     3.1   -6.3   -3.1
N     4.0   -5.8   -3.3
H    -5.1   -0.3   -5.9
H    -4.5   -5.4    3.4
C    -1.2    6.4   -4.3
H    -2.0   -5.9   -4.8
H     4.6   -4.3   -4.6
H     1.9   -6.4    4.3
N    -3.7   -5.9    3.7
H     4.8    2.2   -5.9
H     4.6    5.5   -3.6
H    -2.1    6.1   -4.8
N     3.9    6.2   -3.3
N    -3.8    6.0    3.7
H    -0.3    6.3   -4.9
H    -2.9    6.6    3.5
H    -5.5   -5.4   -2.4
H    -5.0    2.2   -5.9
H     6.1    4.9    2.0
H     3.3   -5.3   -5.2
I     6.2    3.7   -3.7
N    -5.9    0.3   -5.6
H    -5.2   -4.3   -4.6
H    -3.6   -7.1    2.0
H     4.3    6.6   -2.4
C     6.1   -1.4    5.4
C     6.1    4.7    3.0
H     5.3   -5.4    3.4
H    -5.3    5.5   -3.6
H     3.9    1.5   -7.3
H    -3.8    5.9    4.8
H     6.8    0.5    5.1
I    -1.0   -8.5    0.5
H    -3.7   -6.0    4.8
I     1.1    8.4   -1.3
I    -8.5   -0.2    1.3
I    -1.3   -2.5    8.2
C    -3.6   -7.3    3.0
I    -6.4    2.2    5.5
H     0.5   -8.4    2.5
H    -4.6    6.6    3.4
C    -5.9    1.6   -6.2
H     4.7   -6.5   -3.6
H     7.0    4.2    3.4
N     1.1   -8.1    3.4
P    -8.5    2.1   -1.0
H     7.0   -1.9    5.1
H    -6.8   -4.0   -4.0
N    -5.9   -5.8   -3.3
H    -2.1    8.0   -3.2
N    -1.3    7.9   -3.9
C    -6.1   -4.8   -4.4
P     8.7   -2.1    0.3
H    -2.7   -7.8    3.4
I     8.7    0.2   -2.1
I    -1.3    8.3    2.9
H    -0.5    8.2   -3.5
H    -6.7   -0.3   -5.9
H     6.0   -1.2    6.5
H    -7.7   -1.3    4.4
H    -5.6    6.6   -2.4
H     3.2    6.7   -5.2
H    -5.2   -6.5   -3.6
H     5.3    6.6    3.4
I     1.4   -8.2   -3.6
C     3.6    7.2   -4.4
I     3.9   -8.4    0.3
N    -6.0    6.2   -3.3
I    -3.7    8.3   -1.2
P    -1.4    3.7    8.3
I     1.1    5.7    7.2
H    -6.8    2.1   -5.9
I     6.5   -2.1   -6.3
I     3.6   -2.5    8.2
H     7.8   -4.0   -3.2
H    -8.0    3.4    3.5
N     6.1    6.0    3.7
N     6.2   -5.9    3.7
H     2.9    8.0   -4.0
H     0.5   -8.4    4.2
H    -6.8    5.7   -3.1
I    -8.6   -3.6   -1.3
I     8.7    3.5    0.5
H     7.0   -5.4    3.5
H     1.9   -8.6    3.5
I     1.4    2.6   -9.0
I     3.6    8.3    2.9
H    -5.9    1.5   -7.3
H    -4.5   -7.8    3.3
H     6.2   -7.1    2.0
I     1.2   -6.3    7.2
H     6.0    5.9    4.8
H    -6.7   -6.3   -3.1
P     3.5    3.7    8.3
I    -3.5   -8.3   -3.7
I    -1.0   -5.5   -8.0
I     8.6   -3.7    2.9
H    -1.6    8.4   -4.8
H     6.1   -6.0    4.8
P     1.5   -3.7   -9.0
I     1.1    2.2    9.6
H    -6.6   -5.3   -5.2
I    -3.9    5.7    7.2
P    -1.3    9.9    0.3
I    -8.5    3.7   -3.6
H     8.8    0.4   -4.6
H     5.3   -7.8    3.3
H     8.0   -0.1   -6.0
C     6.2   -7.3    3.0
P     1.4   -9.9   -1.0
I    -3.5    2.6   -9.0
H     4.5    7.7   -4.6
C    -8.7   -1.5    4.9
H     7.9    2.3   -5.8
H    -8.0    5.6    2.5
H     6.9    6.6    3.5
H     8.4   -3.5   -4.8
I    -3.8   -6.3    7.2
N    -8.9    3.9    3.4
I    -6.0   -8.4    0.3
N     8.6   -4.1   -3.9
I    -1.1    6.4   -8.0
P    -3.4   -3.6   -9.1
H    -9.4    3.6    2.5
I     6.1    8.3   -1.2
H    -8.5    0.3    6.0
H    -5.3    7.7   -4.6
I     8.5    2.2    5.6
H    -7.8   -1.0    6.8
H    -7.9   -6.4    2.5
P     1.1   -4.1    9.6
C    -6.2    7.2   -4.4
P     3.6    9.9    0.2
I     4.0   -5.5   -8.0
H    -9.5   -1.1    4.4
N     8.8    0.4   -5.7
P    -3.5   -9.9   -1.0
H    -8.8   -2.6    5.2
I    -3.8    2.2    9.6
I    -6.2   -2.5    8.2
N    -8.6   -0.7    6.2
I    -0.9   -2.0  -10.4
C    -8.6    5.4    3.4
H    -8.0    5.6    4.3
I    -8.4   -2.1   -6.4
H     9.4   -3.7   -3.5
I    -6.2    8.3    2.9
H    -6.7    6.7   -5.2
H     1.0    9.4    5.2
H     7.8   -5.9   -4.8
C     8.8    1.8   -6.2
I     6.0    5.7    7.2
H     7.8    6.1   -4.8
H    -9.5    3.6    4.2
I     3.9    6.5   -8.0
P    -3.8   -4.0    9.6
H    -7.9   -6.4    4.3
P    -6.3    3.7    8.3
H     7.1   -7.8    3.4
I     6.3   -8.3   -3.7
H     8.8    5.9   -3.3
H    10.2   -1.1    4.4
P    -1.0    4.2  -10.3
H    10.3    3.6    2.5
I    11.1   -0.2    1.3
I   -11.0    0.2   -2.1
P   -11.0   -2.1    0.3
C     8.8   -5.6   -4.3
H    -6.9    8.0   -4.0
H    -0.0   -9.6   -5.9
I     3.9   -2.0  -10.4
C    -8.5   -6.6    3.4
I    -1.2   -9.8    5.6
H     8.9   -6.1   -3.3
I     6.1   -6.3    7.2
I     6.3    2.6   -9.0
I    -5.9   -5.5   -8.0
H     9.7   -0.1   -6.0
P    11.1    2.1   -1.0
H   -10.2   -3.7   -3.5
H    -1.8   -9.7   -5.8
H    -1.4    1.3   11.3
I     6.0    2.2    9.6
I   -11.0    3.5    0.5
H     7.7    8.0   -3.2
H     9.7    2.3   -5.9
H     8.8    1.8   -7.3
C     8.7    6.4   -4.3
H    10.2    3.6    4.2
H   -10.0   -0.1   -6.0
C     1.1   10.5    4.9
P    -6.2    9.9    0.2
P     6.4   -3.6   -9.1
H    -9.5   -0.9    6.8
H     0.2   10.9    4.4
H    -3.0   10.1    5.1
H     2.0   10.6    4.4
I    11.1   -3.6   -1.3
H    -9.6    5.9    3.4
H    -9.5   -6.1    3.4
P     6.3   -9.9   -1.0
H   -10.8    0.4   -4.6
H   -10.0    2.3   -5.9
P    -1.3   -8.3    8.3
P     3.9    4.2  -10.3
I     3.5   -9.8    5.5
I     1.3    9.9   -6.4
H     0.7   -0.4  -11.9
I    -6.0    6.5   -8.0
H     3.1   -9.8   -5.9
H     3.6    1.1   11.3
I     1.2   11.8    1.3
C    -0.9  -10.2   -6.2
N    10.8    3.9    3.4
I   -11.0   -3.7    2.9
P     6.1   -4.0    9.6
H     2.4   -0.6  -11.8
I    -1.1  -11.8   -2.1
I     8.5   -2.5    8.2
I    -5.9   -2.0  -10.4
I    -8.7    8.4   -1.3
C    11.0   -1.5    4.9
H    10.1    5.9    3.4
H     9.6   -5.7   -4.9
I     8.8   -8.5    0.5
H    -7.9   -8.6    3.5
N   -10.8    0.4   -5.7
N     8.5    7.9   -3.9
H    -4.7   10.0    5.1
P     3.6   -8.3    8.3
I    -3.4    9.9   -6.3
H    10.2   -0.9    6.8
I    -1.3   -6.0   10.6
I     8.5    8.3    2.9
I    -1.4    6.0   10.6
I    -8.4   -8.2   -3.6
H    10.9   -2.6    5.2
I     1.4  -12.2    1.3
I    11.2    3.7   -3.6
H    10.2   -6.1    3.4
H     5.1   10.0    5.1
P     1.4    8.3   -9.0
N    -8.8   -8.1    3.4
I    -3.7   11.8    1.3
I    -1.2   12.2   -2.1
P     8.4    3.7    8.3
H     9.5    6.3   -4.9
N   -11.1   -4.1   -3.9
H     4.9   -9.8   -5.9
P     1.0    7.9    9.6
H    -4.9   -9.8   -5.9
H    -0.9  -11.6   -4.6
N     1.6   -0.3  -12.4
C    -3.9   10.6    5.4
H   -10.0   -5.7   -4.9
I     1.1   -2.5   12.3
C    -1.4    1.4   12.4
I     3.8  -11.8   -2.1
H    -0.9  -10.2   -7.3
H    -3.4   -0.8  -12.1
I    -8.4    2.6   -9.0
C   -10.8    1.8   -6.2
H    11.7    3.4    3.5
P    -6.0    4.2  -10.3
I    -1.4    9.5    8.2
I   -11.1    2.2    5.6
H    -0.5   -0.5   12.7
I     3.6   -5.9   10.6
I    -8.8    5.7    7.2
N    11.1   -0.7    6.2
I     3.5    6.0   10.6
H     1.7    0.7  -12.6
H    11.2    0.3    6.0
C     4.0  -10.4   -6.2
H     8.3    8.4   -4.8
H    -9.3   -8.4    2.5
H   -11.3   -3.5   -4.8
C    11.1    5.4    3.4
I    -3.5  -12.2    1.3
H   -10.8    5.9   -3.3
H   -10.7   -6.1   -3.3
H    11.9   -1.3    4.4
P    -8.3   -3.7   -9.0
H    -2.1   -0.6   12.6
H    -2.9  -11.4    5.1
P    -3.5    8.4   -9.1
I     3.7   12.2   -2.1
N    -0.9  -11.6   -5.7
I    -6.3   -9.8    5.5
H    -0.5    1.9   12.8
N     1.1   11.3    6.2
I     1.5   -5.9  -11.4
H   -10.1    6.3   -4.9
H     9.3    8.2   -3.5
I    -8.7   -6.3    7.2
H   -11.9   -4.0   -3.2
C     3.6    1.2   12.4
C   -10.9   -5.6   -4.3
H    -6.3    1.1   11.3
P    -0.9   -7.8  -10.3
I     1.4    6.1  -11.4
H     2.8   -0.7   12.7
P    -8.4   -9.9   -1.0
H    -3.9   11.9    3.7
N    -1.3    0.0   13.0
H     0.3   11.1    6.8
H     1.9   10.9    6.8
P    -3.9    8.0    9.6
P     8.6    9.9    0.3
