         400
 sphere cut out from bulk 
P    -0.3   -0.0    1.0
I     1.1   -2.0   -1.1
I     0.7    2.2   -1.1
I    -2.7   -0.2   -1.1
P    -0.3   -0.0   -3.2
I     2.2    0.2    3.2
I    -1.3   -2.2    3.0
I    -1.7    2.0    3.1
H     3.4    3.0   -0.0
H     3.4   -2.5   -1.9
H     0.4   -4.7    0.1
H     3.7    1.9    2.2
H    -0.0    4.4   -2.0
H     4.6    1.7   -0.0
H    -4.7    1.7   -0.0
H    -0.6   -4.5    2.3
H    -4.3   -2.0   -1.9
C     4.4    2.7    0.3
H    -4.0    2.5    2.2
P    -0.4   -0.1    5.2
H    -1.3   -5.1    0.0
H    -4.2    3.4   -0.0
N     4.4    2.6    1.8
C    -0.3   -5.4    0.4
C    -5.0    2.7    0.3
N     4.4   -2.7   -2.3
N    -0.3   -5.4    1.9
H     5.0   -2.0   -1.9
I     2.1    0.0   -5.3
H     4.0    3.6    2.2
N    -0.3    5.3   -2.3
I    -1.5    2.0   -5.3
N    -5.0    2.6    1.8
I    -1.4   -2.2   -5.3
H    -1.3    5.5   -2.0
N    -4.9   -2.7   -2.3
H     0.6   -5.6    2.3
H     4.2   -1.6   -4.1
H     3.6   -1.3    4.8
H     5.1    3.4   -0.0
H    -4.6   -3.6   -1.9
H     4.7   -3.6   -1.9
H     5.3    2.5    2.2
H    -1.3    4.0    4.7
H    -5.6    1.9    2.2
H    -1.1    4.7   -4.2
C     4.4   -2.7   -3.8
H     0.3    6.1   -2.0
H    -0.1   -6.4    0.0
H    -4.0   -2.9    4.2
H     3.6   -3.3   -4.1
H    -4.0   -3.0   -4.1
C    -0.4    5.4   -3.8
H     0.6    5.1   -4.2
H    -1.0   -6.2    2.2
H    -5.9    3.0   -0.0
H    -5.9   -2.5   -1.9
I     6.6   -0.2   -1.1
H    -5.3    3.6    2.2
C    -4.9   -2.7   -3.8
H    -5.1   -1.6   -4.1
H     3.8   -3.7    4.4
H     0.7    5.4    4.4
N     4.0   -1.9    5.5
I    -3.6    6.0   -1.2
I    -3.9   -5.9   -1.2
N    -1.0    4.6    5.5
H     3.3   -2.2    6.1
I     3.3    5.8    3.0
H     5.4   -2.9    4.2
H    -0.4    4.1    6.1
C     4.6   -3.2    4.9
P    -0.3   -0.0   -7.4
H     5.4   -3.0   -4.1
I     2.9   -6.1    3.0
H    -0.8    6.2    4.1
C    -4.7   -3.2    4.9
H    -5.7   -1.3    4.8
C    -0.2    5.8    4.9
H    -0.6   -4.5   -6.1
I     1.0   -2.1    7.2
I     0.8    2.1    7.3
H    -0.6    6.4   -4.2
H    -4.6   -1.4    6.0
I    -2.8   -0.2    7.2
H     4.0    1.9   -6.4
H     4.8   -1.4    6.0
H    -5.7   -3.3   -4.1
I    -7.2    0.2    3.2
N    -5.3   -1.9    5.5
H    -5.5   -3.7    4.4
H    -1.8    5.0    6.0
H    -4.3   -3.8    5.7
I     5.4   -5.9   -1.2
I     1.9    7.9   -1.2
H     0.7   -5.5   -6.1
H    -3.9    2.9   -6.7
I     5.7    6.0   -1.2
N    -0.3   -5.4   -6.5
H     5.0   -3.8    5.7
I     7.6    2.0    3.1
I    -8.2   -2.0   -1.1
H    -5.4    1.9   -6.4
I     3.0   -6.0   -5.4
I     1.9   -8.3   -1.2
H    -0.0    6.5    5.6
H    -0.9   -6.1   -6.1
I     3.2    6.0   -5.5
C     4.6    2.4   -7.1
I     8.0   -2.2    3.0
I    -2.6   -7.9    3.0
H     3.4    4.1   -7.1
I    -6.0    5.8    3.0
H    -6.1   -2.2    6.1
C    -4.8    2.4   -7.1
I    -8.6    2.2   -1.1
I    -7.2    0.0   -5.3
H     5.4    2.9   -6.7
P     9.1   -0.0    1.0
I    -2.6    8.2    3.0
P     4.3    8.0    0.9
H    -4.5    1.6   -7.9
P     4.3   -8.1    0.9
H     2.9    3.0   -8.3
N     3.8    3.4   -7.8
I    -6.4   -6.1    3.0
P    -0.4   -0.2    9.4
H     4.9    1.6   -7.9
H     2.8    2.9    8.5
H     0.5   -4.6   -8.3
P    -5.0    8.0    0.9
H     8.0   -5.1    0.0
P    -5.0   -8.1    0.9
C    -0.2   -5.4   -8.0
P     9.1   -0.0   -3.2
P    -9.6   -0.0    1.0
I     7.8    2.0   -5.3
H    -0.1    9.7    0.0
P     4.3    8.1   -3.3
I     6.5   -0.2    7.2
P     4.4   -8.1   -3.3
H     0.4   -4.8    8.5
H    -1.2   -5.1   -8.3
I     7.9   -2.2   -5.3
I     0.9    2.2   -9.5
I     1.1   -2.0   -9.6
I    -2.5   -7.9   -5.4
H     8.0    5.5   -2.0
I    -2.7   -0.0   -9.6
I    -3.8    5.8    7.2
H     8.7   -4.5    2.3
H    -1.3   -5.2    8.5
P    -5.0   -8.1   -3.3
H    -8.9   -4.7    0.1
P    -5.0    8.1   -3.3
H     4.2    3.9    8.3
H    -5.9    4.1   -7.1
P    -9.6   -0.0   -3.2
I    -3.8   -6.1    7.2
H    -4.6    1.5    8.9
H     8.1    4.0    4.7
I    -6.1    6.0   -5.5
I    -2.6    8.3   -5.4
N    -5.6    3.4   -7.8
I    -6.3   -6.0   -5.4
H     4.8    1.5    8.9
H     0.3  -10.1   -2.0
N     3.7    3.3    9.0
H    -1.0   10.0    2.2
H     8.2    4.7   -4.2
H     4.3    4.0   -8.5
P     9.0   -0.1    5.2
I    10.1    2.2   -1.1
P     4.3    8.0    5.1
C    -0.3   -5.5    8.8
H     0.0   -6.4   -8.3
H    -5.1    3.9    8.3
H     9.3    4.4   -2.0
C     9.0   -5.4    0.4
P     4.3   -8.1    5.1
H    -9.4    4.4   -2.0
H    -8.7   -5.6    2.3
H     8.4   -6.2    2.2
H    -5.0    4.0   -8.5
H    -0.6   -9.8   -4.2
N     9.0   -5.4    1.9
H    -0.1   -6.5    8.5
I    10.5   -2.0   -1.1
N     9.0    5.3   -2.3
I     5.5    5.8    7.2
P    -5.0    8.0    5.1
C    -0.4   10.7    0.4
H    -0.8   -9.9    4.1
H     0.6   10.5    2.3
I    -3.6  -10.1   -1.2
H     9.8   -4.7    0.1
P    -5.0   -8.1    5.1
I     2.9   10.0    3.0
H     7.5    5.0    6.0
I     6.8   -7.9    3.0
H    -1.3  -10.6   -2.0
I     1.9    8.0    7.2
C     4.5    2.3    9.7
I    -7.4    7.9   -1.2
H    -8.7    5.1   -4.2
N    -0.4   10.7    1.9
I     5.6   -6.1    7.2
H    -6.4    3.0   -8.3
P    -9.7   -0.1    5.2
H     3.3    4.0    9.7
N     8.4    4.6    5.5
I     6.7    8.2    3.0
C    -4.9    2.3    9.7
I    -4.0   10.2   -1.2
N    -0.3  -10.8   -2.3
I     1.9   -8.2    7.2
C    -9.6   -5.4    0.4
H    -9.0    6.1   -2.0
H    -8.6    5.4    4.4
H    -1.4   11.0    0.0
H    -6.5    2.9    8.5
N    -5.7    3.3    9.0
C     9.0    5.4   -3.8
H     0.0   -9.6    5.6
H   -10.0   -4.5    2.3
I    -7.4   -8.3   -1.2
H    -4.0    2.7   10.1
N    -9.7   -5.4    1.9
I    -8.4   -2.1    7.2
I     3.3  -10.3    3.0
H     9.3   -6.4    0.0
H     3.9    1.8   10.4
H     8.5    6.2    4.1
N    -9.7    5.3   -2.3
I   -10.7   -2.2    3.0
H    -9.4   -6.4    0.0
H     3.3   -2.0  -10.7
I    -8.6    2.1    7.3
C    -0.2  -10.4    4.9
C    -0.3  -10.8   -3.8
H     0.4   11.5    0.1
H    -0.3    4.2  -10.7
H     8.7   -4.5   -6.1
H     9.6    6.1   -2.0
H     8.7    6.4   -4.2
H     9.0    4.1    6.1
I     5.4   10.2   -1.2
P    -0.3    0.0  -11.6
I   -11.0    2.0    3.1
H    10.0   -5.6    2.3
H     0.8  -10.7    4.4
I     2.1   -0.1   11.5
I     6.6   -0.0   -9.6
H    -0.7   -4.6   10.7
I     5.7  -10.1   -1.2
P     9.0   -0.0   -7.4
C    -9.7    5.4   -3.8
N    -0.4   -5.5   10.3
I     6.8   -7.9   -5.4
H    -4.5   -1.3  -10.8
I    -1.6    1.9   11.5
H     5.4    2.7   10.1
H    -0.9   10.0   -6.1
P     4.4   -7.9   -7.5
I    -1.5   -2.3   11.5
H   -10.6   -5.1    0.0
C     9.1    5.8    4.9
H     0.7  -11.1   -4.2
H     4.8   -1.3  -10.8
H     0.0  -11.7   -2.0
H    -0.7   11.7    2.3
I     3.0   10.2   -5.4
I    11.5    0.2    3.2
H    -5.5    1.8   10.4
I    -3.7   -6.0   -9.6
I    -3.7    5.9   -9.7
H    -8.6   -5.5   -6.1
H    10.0    5.1   -4.2
I     6.8    8.3   -5.4
P     4.4    8.2   -7.5
P    -4.9   -7.9   -7.5
I     3.2  -10.2   -5.5
I   -12.0   -0.2   -1.1
H     8.4   -6.1   -6.1
H    -1.7    5.1  -10.8
H    -6.0    4.0    9.7
P    -9.6   -0.0   -7.4
H     0.6   -5.7   10.7
H   -10.6    5.5   -2.0
H   -10.4    4.7   -4.2
C    -9.5    5.8    4.9
I   -10.7   -2.2   -5.3
N     4.1   -1.8  -11.3
P    -5.0    8.2   -7.5
H    -9.7    4.1    6.1
H   -10.3   -6.2    2.2
H    10.0    5.4    4.4
H     0.6   10.6   -6.1
I    -6.4   10.0    3.0
I   -10.9    2.0   -5.3
H    -1.1  -11.5   -4.2
H   -10.6    4.0    4.7
I    -6.0  -10.3    3.0
N    -0.9    4.8  -11.3
N     9.1   -5.4   -6.5
H    -6.0   -2.0  -10.7
H    -1.0   -6.2   10.7
H    -4.2   -3.6  -11.1
H    -9.9   -4.5   -6.1
H    -9.9    6.4   -4.2
N   -10.3    4.6    5.5
N    -0.3   10.8   -6.5
N    -5.2   -1.8  -11.3
H   -10.2    6.2    4.1
I     5.6    5.9   -9.7
I    10.1    2.1    7.3
I    11.5    0.0   -5.3
H     8.1   -5.1   -8.3
H     3.7   -1.2  -12.1
I     5.7   -6.0   -9.6
H     9.3    6.5    5.6
H    -9.3    6.5    5.6
I     2.0    8.1   -9.6
I     2.0   -8.1   -9.6
N    -9.6   -5.4   -6.5
N    -0.9  -11.5    5.5
I    10.3   -2.1    7.2
H     8.0   -5.2    8.5
H    -1.8  -11.2    6.0
H     5.1   -3.6  -11.1
I    -8.3   -2.0   -9.6
H    -1.2    4.1  -12.1
H    -0.0    9.8   -8.3
H    -0.1    9.7    8.5
I    -3.8   10.0    7.2
I    -8.5    2.2   -9.5
H    -8.8   -4.6   -8.3
H    10.0   -5.5   -6.1
P     9.0   -0.2    9.4
H     0.1    6.6  -11.2
P     4.3   -8.0    9.3
P     4.3    8.1    9.3
I    -7.4    8.0    7.2
H    12.7    3.0   -0.0
I    -6.1  -10.2   -5.5
H    -1.2  -12.2    4.7
I     3.1    5.9   11.3
I    -6.3   10.2   -5.4
I    -3.8  -10.3    7.2
H    12.8   -2.5   -1.9
C    -4.6   -3.0  -11.9
I    -7.4   -8.2    7.2
C     4.7   -3.0  -11.9
H    -0.7   11.7   -6.1
H     8.3   10.0    2.2
C     9.1   -5.4   -8.0
H    -8.9   -4.8    8.5
P    -5.0   -8.0    9.3
I     2.9   -6.1   11.4
P    -5.1    8.1    9.3
C    -0.1    5.9  -12.0
H    -5.6   -1.2  -12.1
H    13.0    1.9    2.2
H   -10.2   -6.1   -6.1
H     4.1  -12.6    2.2
C    -0.3   10.8   -8.0
H     9.2    9.7    0.0
H    -4.2  -12.8   -0.0
H     4.1   -1.8   12.7
H     8.1  -10.6   -2.0
H    -1.2    4.5   12.6
H     4.7   12.5   -1.9
H    -4.7   12.5   -1.9
H     3.9   -3.6  -12.4
H    -0.3  -12.0    6.1
P    -9.7   -0.2    9.4
I     5.5   10.0    7.2
H    -3.9   -2.7  -12.7
H    -9.4    9.7    0.0
C    -9.6   -5.4   -8.0
P    -0.4   -0.1   13.6
H     0.8    5.5  -12.4
H     0.5    4.9   12.6
I    -7.3   -0.1   11.5
H     3.5   -3.5   12.7
H   -11.1    5.0    6.0
H     8.0   11.0    0.0
H     3.4  -13.2   -0.0
H    -9.0  -10.1   -2.0
H    -4.1   -3.1   12.7
H     9.8   -4.6   -8.3
H     8.5   -9.9    4.1
H     3.7   12.4    4.4
I     5.5  -10.3    7.2
H   -13.3    2.5    2.2
I    11.2    7.9   -1.2
C     9.0   -5.5    8.8
H     8.8   -9.8   -4.2
H     5.2  -12.8   -0.0
H     9.7   -4.8    8.5
