         400
 sphere cut out from bulk 
P    -1.0    0.6    1.5
I    -0.8    0.4   -1.8
I     1.5   -1.4    1.4
H    -0.6   -2.3   -1.7
H     1.8    0.9   -2.1
H     3.3    0.4   -0.2
H    -0.7   -3.2   -0.3
I     0.9    3.1    1.5
N    -0.5   -3.2   -1.3
N     2.8    1.2   -2.1
I    -2.9   -2.1    1.3
H     0.5   -3.5   -1.4
C     3.6    0.3   -1.3
H     3.5   -0.7   -1.6
H     2.9    2.2   -1.8
H    -1.2    3.7   -1.7
H    -4.2    0.6   -1.4
I    -3.6    2.4    1.4
H     3.1    1.2   -3.1
H     2.6    1.2    3.6
H    -0.7   -3.5    3.2
I    -1.0    0.4    4.7
C    -1.4   -4.2   -2.0
H     4.7    0.6   -1.4
H    -2.4   -3.9   -1.9
H     2.4   -0.3    4.6
P    -1.2    0.5   -5.0
C     3.2    0.5    4.2
H     3.9   -0.0    3.5
C    -1.4    4.7   -2.0
H    -1.1   -4.2   -3.1
I     3.2   -4.0   -1.8
C    -5.3    0.3   -1.3
P     3.5   -3.9    1.4
I     1.6   -1.2   -5.1
H    -1.2   -5.2   -1.7
H     0.5    5.4   -1.4
H    -5.6    0.4   -0.2
H    -5.4   -0.7   -1.6
H    -0.7    5.7   -0.3
H    -1.5   -2.2    5.1
C    -0.7   -3.9    4.2
H    -1.1    4.8   -3.1
N    -0.5    5.7   -1.3
H    -0.9    4.0    4.2
H    -2.4    5.0   -1.9
H     0.3   -3.7    4.7
I     5.3    2.4    1.4
I     0.6    3.2   -5.1
I     3.1    4.9   -1.8
I     0.9   -5.8    1.5
H    -5.0   -0.0    3.5
N    -1.7   -3.2    5.1
I    -2.9   -2.2   -5.1
P     3.5    5.0    1.4
H    -2.6   -3.3    4.7
H    -0.7    5.5    3.2
I     6.0   -2.1    1.3
H    -0.9   -4.9    4.2
N    -6.1    1.2   -2.1
C    -0.7    5.0    4.2
I    -3.9    2.2   -4.9
N     3.9    1.1    5.3
H    -5.8    1.2   -3.1
H    -6.0    2.2   -1.8
H    -4.4    1.8    5.0
P    -5.4   -3.9    1.4
H    -0.6    6.6   -1.7
H     3.2    1.6    5.9
H     4.5    1.8    5.0
H     0.3    5.2    4.7
I     3.6   -3.8    4.7
C    -5.7    0.5    4.2
P     3.4   -3.9   -5.0
H    -1.7   -3.6    6.0
I    -5.7   -4.0   -1.8
H    -6.3    1.2    3.6
H     4.4    0.4    5.9
I     5.0    2.2   -4.9
H     2.6    0.7   -6.9
N    -5.0    1.1    5.3
H    -4.5    0.4    5.9
H    -7.1    0.9   -2.1
P    -5.4    5.0    1.4
I    -2.9    6.8    1.3
H     2.9   -6.7   -1.8
I    -3.6   -6.5    1.4
I    -7.4   -1.4    1.4
I     0.6   -5.7   -5.1
H    -1.4   -3.1   -7.0
I     1.5    7.5    1.4
I    -5.8    4.9   -1.8
H    -2.6    5.6    4.7
I     3.6    5.1    4.7
H     6.5   -3.9   -1.9
N    -1.7    5.7    5.1
P     3.4    5.0   -5.0
H    -6.5   -0.3    4.6
P    -0.9    0.8    7.9
I    -5.3   -3.8    4.7
P     7.9    0.6    1.5
I     6.0   -2.2   -5.1
H    -0.3   -4.3   -7.0
H    -1.7    5.4    6.0
I     8.1    0.4   -1.8
I     0.8   -2.0    8.0
I    -1.0    0.4   -8.2
N     2.6    1.1   -7.8
H    -5.7    1.6    5.9
H    -0.3    4.6   -7.0
I     1.8    2.5    7.8
H     6.5    5.0   -1.9
H    -0.1   -2.9   -7.9
N    -0.8   -3.6   -7.6
H     1.6    0.9   -8.2
P    -5.5   -3.9   -5.0
H     1.8   -8.0   -2.1
N     2.8   -7.7   -2.1
H     6.3   -3.3    4.7
I     5.3   -6.5    1.4
H     2.8    2.1   -7.8
P    -1.0   -8.4    1.5
H    -1.5    6.8    5.1
I    -3.7   -1.1    7.8
H     7.7    3.7   -1.7
I    -5.3    5.1    4.7
I    -8.0    3.1    1.5
I    -0.8   -8.5   -1.8
H     8.3   -2.3   -1.7
H     8.2   -3.2   -0.3
C     7.5   -4.2   -2.0
I    -2.9    6.7   -5.1
H     2.6   -7.7    3.6
I    -2.7    3.4    7.8
H     3.1   -7.7   -3.1
P    -5.5    5.0   -5.0
I    -7.3   -1.2   -5.1
H     3.5    8.2   -1.6
H     3.3   -8.5   -0.2
C     7.5    4.7   -2.0
I    -3.9   -6.7   -4.9
N     8.4   -3.2   -1.3
I     7.9    0.4    4.7
H    -8.4   -3.5   -1.4
H    -1.4    5.8   -7.0
H    -6.0   -6.7   -1.8
I     6.0    6.8    1.3
P     7.7    0.5   -5.0
H     7.4   -2.2    5.1
H    -4.3    0.5   -8.2
N    -0.8    5.3   -7.6
H    -6.3    0.7   -6.9
H     7.8   -4.2   -3.1
H     3.4   -0.7   -8.7
P     3.4   -3.7    7.9
I     1.6    7.7   -5.1
N     7.2   -3.2    5.1
C     3.6    0.4   -8.7
H    -4.2   -8.3   -1.4
C     3.6   -8.6   -1.3
H     4.6    0.5   -8.2
H     7.7   -5.2   -1.7
I     5.2   -1.1    7.8
H     8.2   -3.5    3.2
H    -2.2    4.0   -8.3
I    -0.8    9.3   -1.8
H     4.7   -8.3   -1.4
H     7.8    4.8   -3.1
H     6.3    5.6    4.7
P    -1.0    9.5    1.5
I     5.0   -6.7   -4.9
H    -4.3   -7.1    5.0
I    -1.0   -8.5    4.7
I     3.2   -4.2   -8.2
H     4.6   -7.1    5.0
C    -1.5   -4.2   -8.7
P    -1.2   -8.4   -5.0
I    -2.7   -5.5    7.8
H     8.0    4.0    4.2
H     3.3    9.3   -0.2
I    -9.7    0.4   -1.8
H    -9.5   -2.3   -1.7
C     3.2   -8.4    4.2
H    -2.2   -4.9   -8.3
H    -0.1    6.0   -7.9
H     3.2   -7.3    5.9
H    -5.4    8.2   -1.6
H     8.2    5.7   -0.3
I     3.2    4.7   -8.2
C     3.6    9.2   -1.3
N    -9.4   -3.2   -1.3
I    -8.0   -5.8    1.5
P     3.4    5.2    7.9
C    -1.5    4.7   -8.7
P    -9.9    0.6    1.5
C     8.2   -3.9    4.2
N    -6.1   -7.7   -2.1
H     2.4    8.7    4.6
H     7.2   -3.6    6.0
H    -8.4    5.4   -1.4
N    -6.3    1.1   -7.8
H    -6.1    2.1   -7.8
H    -2.0   -3.4   -9.3
H    -9.6   -3.2   -0.3
H    -5.8   -7.7   -3.1
C    -5.3    0.4   -8.7
H     9.4   -3.5   -1.4
C    -5.3   -8.6   -1.3
H    -5.6   -8.5   -0.2
N     3.9   -7.8    5.3
I    -8.3    3.2   -5.1
H     1.8    9.9   -2.1
N     8.4    5.7   -1.3
P    -5.5   -3.7    7.9
H    -0.7    4.2   -9.4
I     1.8   -6.5    7.8
H     8.0   -4.9    4.2
H    -1.1   -3.1    9.8
H     3.9    8.9    3.5
H    -5.5   -0.7   -8.7
I     6.0    6.7   -5.1
H     3.6    0.8   -9.7
I     9.8    3.1    1.5
H     8.2    5.5    3.2
H     3.5   -9.6   -1.6
H     3.9   -8.9    3.5
H     3.5    0.5    9.8
H    -8.6   -3.7    4.7
I    -1.1    9.3    4.7
H    -0.7   -4.7   -9.4
I     6.2    3.4    7.8
H    -4.3    9.5   -1.4
N     7.2    5.7    5.1
H    -6.3   -7.7    3.6
H     2.4   -9.2    4.6
C     8.2    5.0    4.2
I     1.5  -10.3    1.4
I    10.4   -1.4    1.4
I     0.7    6.9    8.0
I    -7.4    7.5    1.4
H     7.5   -3.1   -7.0
H     4.6    9.5   -1.4
H    -9.6   -3.5    3.2
N    -5.0   -7.8    5.3
N     2.8   10.1   -2.1
C    -5.3    9.2   -1.3
C     3.1    9.4    4.2
H     2.8   -6.8   -7.8
H     8.3    6.6   -1.7
P    -1.2    9.4   -5.0
H    -5.0    8.9    3.5
H     7.2    5.4    6.0
H    -5.0   -8.9    3.5
I    -5.7   -4.2   -8.2
H   -10.1    3.7   -1.7
H    -7.1   -8.0   -2.1
I    -7.1    2.5    7.8
P    -5.5    5.2    7.9
H    -5.6    9.3   -0.2
H    10.7    0.9   -2.1
H     9.4    5.4   -1.4
H    -2.0    5.5   -9.3
H    -7.3    0.9   -8.2
H     9.2   -3.7    4.7
I    -9.9    0.4    4.7
H     3.1   10.1   -3.1
I    -5.7    4.7   -8.2
C    -5.7   -8.4    4.2
H    -5.7   -7.3    5.9
N    -9.4    5.7   -1.3
H     2.6   -8.2   -6.9
H    -8.6    5.2    4.7
H    -5.3    0.8   -9.7
H     2.6   10.2    3.6
C    -9.6   -3.9    4.2
H    -9.6    5.7   -0.3
H    -5.4   -9.6   -1.6
I    -1.1    0.7   11.1
H    -5.4    0.5    9.8
H     4.4   -8.5    5.9
P     8.0    0.8    7.9
I     9.5    3.2   -5.1
H     7.4    6.8    5.1
N    -1.5   -3.0   10.8
C   -10.3   -4.2   -2.0
H     2.2    0.8   11.0
I    -8.3   -5.7   -5.1
P   -10.1    0.5   -5.0
H   -10.0   -4.2   -3.1
H    -4.5   -8.5    5.9
H    -0.6  -11.2   -1.7
H    -1.4   -2.0   11.1
C     3.3    0.5   10.9
I     6.2   -5.5    7.8
P    -0.9   -8.1    7.9
H    -9.8    4.0    4.2
N     2.6   -7.9   -7.8
I     7.9    0.4   -8.2
H     6.7    4.0   -8.3
I    -2.9  -11.0    1.3
H    -1.2    5.8    9.8
H   -10.1   -5.2   -1.7
C   -10.3    4.7   -2.0
H    -9.6    5.5    3.2
I     1.6  -10.2   -5.1
I     9.8   -5.8    1.5
P    -1.2    0.3  -11.5
H   -10.0    4.8   -3.1
H    -2.5   -3.3   10.8
H     9.2    5.2    4.7
H     1.7   -8.0   -8.2
P     7.9   -8.4    1.5
C    -9.6    5.0    4.2
I    -8.1   -2.0    8.0
H     2.9   11.1   -1.8
I    -3.7    7.9    7.8
N     8.1   -3.6   -7.6
I     0.7   -2.3  -11.5
H    -6.5    8.7    4.6
H    -9.5    6.6   -1.7
H     7.5    5.8   -7.0
H    -9.8   -4.9    4.2
H   -10.4   -2.2    5.1
C    -5.8    9.4    4.2
I    10.5   -1.2   -5.1
H     3.4   -0.5   11.2
I    -7.3    7.7   -5.1
H     6.7   -4.9   -8.3
H     4.3    9.3    5.9
I     8.1   -8.5   -1.8
I    -1.0   -8.5   -8.2
I     1.4    2.2  -11.6
H     8.6   -4.3   -7.0
H    -4.6    9.3    5.9
I    -3.6   11.3    1.4
N    11.7    1.2   -2.1
N     3.8   10.0    5.3
H    -0.8    4.0   11.3
I   -11.8   -2.1    1.3
N    -6.1   10.1   -2.1
H    -6.1   -6.8   -7.8
H    -5.8   10.1   -3.1
H     8.6    4.6   -7.0
H     2.6    9.6   -6.9
H     6.9   -3.4   -9.3
H   -11.3   -3.9   -1.9
I     0.9   12.0    1.5
H    -6.5   -9.2    4.6
H     0.4   -3.6   11.5
H    -3.7    1.2   11.5
I    -3.7   -1.6  -11.4
H    11.8    2.2   -1.8
N   -10.6   -3.2    5.1
H    11.5    1.2    3.6
H     4.0    2.4   11.2
H    12.2    0.4   -0.2
H    -0.7  -12.2   -0.3
I    -3.1    2.8  -11.5
H     8.8   -2.9   -7.9
H    11.3   -0.3    4.6
I     9.5   -5.7   -5.1
C     7.4   -4.2   -8.7
N    -0.5  -12.2   -1.3
C    -5.6    0.5   10.9
I     5.2    7.9    7.8
H    -1.5  -11.1    5.1
C    -0.7   -3.9   11.6
H    -9.2   -4.3   -7.0
I     3.8   -3.8   11.1
H    -9.0   -2.9   -7.9
N     8.1    5.3   -7.6
H    -7.1    9.9   -2.1
H    -0.8   -4.9   11.3
N    -1.5    5.9   10.8
N     4.2    1.4   11.6
P     7.9    9.5    1.5
C     7.4    4.7   -8.7
I    -7.1   -6.5    7.8
N    -5.1   10.0    5.3
H    -2.5    5.6   10.8
H     3.4    8.2   -8.7
H    -6.3   -8.2   -6.9
H    -9.2    4.6   -7.0
P     7.7   -8.4   -5.0
H    -6.3   10.2    3.6
I     8.1    9.3   -1.8
H     3.2   10.5    5.9
I     7.9   -8.5    4.7
H    12.0    1.2   -3.1
H    -4.9    2.4   11.2
I    -1.0    9.3   -8.2
H     0.5  -12.4   -1.4
H    12.4   -0.7   -1.6
H   -11.3    5.0   -1.9
H    -4.3   -8.4   -8.2
H    -5.5   -0.5   11.2
P    -0.9    9.7    7.9
I    -2.8  -11.1   -5.1
I     5.3   11.3    1.4
C    12.5    0.3   -1.3
