         400
 sphere cut out from bulk 
P    -0.5   -0.1    1.4
I     0.6    2.2   -0.6
I     0.9   -2.1   -0.7
P    -0.5    0.1   -2.8
I    -2.9   -0.2   -0.7
I     1.9    0.2    3.6
I    -1.8    2.1    3.3
H     3.2   -2.6   -1.4
H     3.2    2.9    0.5
I    -1.6   -2.1    3.5
H    -0.1   -4.4    0.0
H    -0.2    4.5   -0.0
H     4.4    1.7    0.6
H     3.5    2.0    2.8
C     4.2    2.7    0.9
H    -4.5   -2.0   -1.5
H    -4.9    1.7    0.6
I     2.0    0.2   -4.8
H    -1.2   -4.6    2.2
N     4.2   -2.7   -1.8
N    -0.4   -5.3    0.4
H     4.8   -2.0   -1.5
H    -1.3    4.8    2.2
N    -0.5    5.4    0.3
N     4.1    2.7    2.4
H     0.6   -5.0    2.2
H    -4.4    3.4    0.6
I    -1.6   -2.1   -4.9
H     3.9   -1.7   -3.6
H     0.5    5.1    2.2
P    -0.6    0.2    5.6
H    -4.2    2.5    2.8
C    -0.4   -5.3    1.9
H    -1.4   -5.5    0.0
I    -1.8    2.1   -5.0
C    -0.5    5.5    1.8
H    -1.4    5.6   -0.1
C    -5.1    2.7    0.9
H     3.8    3.6    2.7
C     4.2   -2.7   -3.3
H     4.5   -3.6   -1.5
H     4.9    3.4    0.6
H     3.4   -3.4   -3.7
N    -5.1   -2.7   -1.8
H     0.2   -6.1    0.0
H     0.2    6.2   -0.1
H    -4.8   -3.6   -1.5
H     3.4   -1.3    5.1
H    -4.2   -3.0   -3.7
N    -5.2    2.7    2.4
H     5.1    2.5    2.8
I     6.4   -0.2   -0.7
C    -5.2   -2.7   -3.3
H    -5.4   -1.7   -3.6
H    -5.8    2.0    2.8
H    -0.6   -6.3    2.2
H    -6.1   -2.6   -1.4
H    -6.1    2.9    0.5
H    -4.2   -2.9    4.6
H    -0.7    6.5    2.1
H     3.6    2.0   -5.5
H     5.1   -3.0   -3.7
P    -0.4    0.0   -7.0
I    -3.8   -5.9   -0.7
H     3.6   -3.7    4.9
H    -5.5    3.6    2.7
I    -3.8    6.1   -0.6
N     3.8   -1.9    5.9
H    -4.2    2.5   -5.5
I     3.0    5.9    3.3
H     5.1   -2.9    4.6
H     3.0   -2.1    6.5
C     4.4   -3.1    5.4
H    -1.3   -4.2   -6.2
I     3.0   -6.1    3.5
H     3.9    3.7   -5.6
H    -5.9   -3.4   -3.7
N     4.2    2.7   -5.9
H    -5.9   -1.3    5.1
C    -4.9   -3.1    5.4
I     0.8   -1.9    7.7
H    -1.2    4.8   -6.2
H     4.5   -1.3    6.4
H     5.2    2.5   -5.5
I     5.5   -5.9   -0.7
H    -4.8   -1.3    6.4
I     0.5    2.2    7.8
H     0.6    5.2   -6.3
I    -7.4    0.2    3.6
I    -3.0   -0.1    7.6
I     5.5    6.1   -0.6
H    -5.8    2.0   -5.5
N    -5.1    2.7   -5.9
N    -5.5   -1.9    5.9
I     1.8   -8.1   -0.6
I     3.0   -6.0   -4.8
I     1.7    8.1   -0.6
I     3.1    5.9   -5.0
H     0.9   -5.1   -6.6
H    -5.7   -3.7    4.9
I     7.5    2.1    3.3
H    -4.5   -3.7    6.2
N    -1.2   -5.1   -6.7
H    -1.4   -5.9   -6.1
H    -5.4    3.7   -5.6
C    -0.4    5.5   -6.6
H     4.8   -3.7    6.2
I     7.7   -2.1    3.5
I    -8.5   -2.1   -0.7
I    -7.3    0.2   -4.8
P     8.8   -0.1    1.4
C     4.2    2.7   -7.4
H     3.3    3.0   -7.8
I    -8.7    2.2   -0.6
C     0.1   -5.2   -7.4
H    -0.7    6.5   -6.3
H     4.5    1.7   -7.7
I    -2.6   -8.1    3.4
P     4.3   -8.0    1.4
H     0.2   -4.4   -8.1
I    -6.3    5.9    3.3
I    -2.7    8.1    3.4
P     8.8    0.1   -2.8
I     7.5    2.1   -5.0
H    -2.0   -5.2   -7.4
I     0.7    2.3   -9.0
H    -4.8    1.7   -7.7
H    -6.3   -2.1    6.5
P     4.2    8.2    1.4
I     1.0   -1.8   -9.1
C    -5.1    2.7   -7.4
I     7.8   -2.1   -4.9
I    -6.3   -6.1    3.5
H    -4.3    3.4   -7.7
H    -0.3    4.5    8.3
P     4.2    8.0   -2.8
P    -5.0   -8.0    1.4
I    -2.8    0.0   -9.2
H     8.0    4.8    2.2
H     8.1   -4.6    2.2
H    -0.1    4.6   -8.5
P     4.3   -8.2   -2.8
H     8.0   -5.5    0.0
H     7.9    5.6   -0.1
I    -2.6   -7.9   -5.0
H    -0.0   -4.5    8.7
N    -0.4    5.5   -8.1
P    -5.1    8.2    1.4
P    -0.6   -0.0    9.8
H     5.0    3.4   -7.7
I     6.3   -0.1    7.6
P    -9.8   -0.1    1.4
I    -6.2    5.9   -5.0
P    -5.1    8.0   -2.8
H     3.0    2.9    9.0
H    -0.6   -9.7    2.1
I    -6.3   -6.0   -4.8
P    -5.0   -8.2   -2.8
H     0.2   -6.2   -7.9
I    -2.6    8.3   -5.0
H     0.3  -10.0   -0.1
H     0.1   10.1    0.0
H    -0.7    9.9    2.2
H     4.3    1.6    9.1
I     9.9    2.2   -0.6
H    -1.6    5.6    8.3
H     9.1    4.5   -0.0
P    -9.8    0.1   -2.8
H     9.3   -4.4    0.0
H    -1.4    5.7   -8.5
N    -0.6    5.4    8.7
H    -6.1    3.0   -7.8
H    -8.7   -5.0    2.2
P     8.7    0.2    5.6
H    -0.0    6.2    8.3
H    -9.4   -4.4    0.0
N     8.8    5.4    0.3
N     8.9   -5.3    0.4
I    10.2   -2.1   -0.7
H    -8.8    5.1    2.2
H    -9.5    4.5   -0.0
H    -5.1    1.6    9.1
C     8.8    5.5    1.8
H     0.2    6.3   -8.5
C     4.0    2.6    9.4
C     8.9   -5.3    1.9
P     4.1    8.0    5.6
I    -4.0   -6.0    7.8
I    -4.0    6.0    7.8
H    -1.3  -10.6   -0.1
H    -4.5    3.3    9.1
H     4.8    3.3    9.1
N    -0.4  -10.8    0.3
I    -3.7  -10.1   -0.6
H    -1.5   10.7    0.0
C    -0.1   -5.3    9.4
P     4.2   -8.2    5.6
N    -0.5   10.9    0.4
C    -0.4  -10.7    1.8
H    -0.0   -6.2    8.9
H     3.2   -2.0  -10.3
H    -9.1   -6.1    0.0
H     8.0   -4.2   -6.2
H    -2.2   -5.3    9.4
H     8.7   -6.3    2.2
H     8.6    6.5    2.1
I     6.6    8.1    3.4
I     6.7   -8.1    3.4
H    -9.1    6.2   -0.1
I    -7.5   -8.1   -0.6
P    -5.2    8.0    5.6
C    -0.5   10.9    1.9
I    -3.9   10.3   -0.7
N    -9.7   -5.3    0.4
C    -5.3    2.6    9.4
I     2.9   10.1    3.5
I    -7.6    8.1   -0.6
I     5.3   -6.0    7.8
I     5.3    6.0    7.8
P    -5.1   -8.2    5.6
N    -9.8    5.4    0.3
P    -0.4    0.3  -11.2
I     6.5    0.0   -9.2
I     1.6    7.9    7.8
C    -9.7   -5.3    1.9
H     9.8    5.1    2.2
I     3.1  -10.3    3.3
H     9.9   -5.0    2.2
H     0.6  -11.1    2.2
P     8.9    0.0   -7.0
H     9.5   -6.1    0.0
H     9.5    6.2   -0.1
H     8.2    4.8   -6.2
H    -6.3    2.9    9.0
C    -9.8    5.5    1.8
P    -9.9    0.2    5.6
H    -4.6   -1.3  -10.4
H     0.5   11.2    2.2
N    -1.4   -5.2   10.1
H     0.7   -5.2   10.2
I    -3.8   -6.0   -9.0
I    -3.8    6.0   -9.0
P     4.3   -8.0   -7.0
H     4.7   -1.3  -10.4
I     1.7   -8.3    7.8
H    -0.6   -9.7   -6.3
I     5.6  -10.1   -0.6
P     4.2    8.2   -7.0
I     6.8   -7.9   -5.0
H    -1.5   -4.3   10.6
C    -0.6    5.4   10.2
H     8.0   -5.9   -6.1
I     2.9   10.2   -4.8
H    -1.4    4.7   10.6
I    -8.6   -1.9    7.7
H     7.3   -5.2   -7.4
I     5.4   10.3   -0.7
H    -1.2  -11.4    2.2
H   -10.5   -4.6    2.2
I   -11.0   -2.1    3.5
N     8.1   -5.1   -6.7
H    -0.1  -11.7   -0.0
I     6.7    8.3   -5.0
H     0.4    5.2   10.5
N     4.0   -1.8  -10.9
P    -5.0   -8.0   -7.0
H    -0.2   11.8    0.0
I    11.3    0.2    3.6
I   -11.2    2.1    3.3
H   -10.6    4.8    2.2
H    -1.3   11.6    2.2
I     3.2  -10.3   -5.0
H    -8.4   -5.1   -6.6
N     4.0    2.7   10.9
H     3.3    1.9   11.3
P    -5.1    8.2   -7.0
H    -8.7    5.2   -6.3
H    -9.9   -6.3    2.2
P    -9.7    0.0   -7.0
H    -4.3   -3.6  -10.6
H    -1.5   10.3   -6.1
H   -10.7   -5.5    0.0
I    -8.8    2.2    7.8
I     1.8    0.1   12.0
H    -6.1   -2.0  -10.3
H   -10.0    6.5    2.1
I   -10.9   -2.1   -4.9
H   -10.7    5.6   -0.1
I    -2.0    2.0   11.8
I     5.5   -6.0   -9.0
I     5.5    6.0   -9.0
I    -1.8   -2.2   11.9
I     1.8    8.0   -9.0
I   -12.2   -0.2   -0.7
N    -5.3   -1.8  -10.9
I    11.3    0.2   -4.8
H     3.6   -1.2  -11.7
H     5.0   -3.6  -10.6
H    -4.4    2.5   11.3
I     1.9   -8.2   -9.0
H     3.7    3.6   11.2
I   -11.1    2.1   -5.0
C     8.9    5.5   -6.6
H    -0.9    6.5   10.5
N    -5.3    2.7   10.9
H    -1.6   -6.0   10.7
I    -6.2  -10.3    3.3
I    -8.3   -1.8   -9.1
H     8.6    6.5   -6.3
I    -6.4   10.1    3.5
H     4.9    2.5   11.3
C    -0.3  -10.7   -6.6
H     0.7  -11.0   -6.3
I    -8.6    2.3   -9.0
H     7.7    5.6    8.3
C     4.6   -3.1  -11.4
I     9.8    2.2    7.8
H     0.1   10.0   -7.9
C    -4.7   -3.1  -11.4
I    10.1   -1.9    7.7
H     9.9    5.2   -6.3
H    12.5    2.9    0.5
C    -9.2   -5.2   -7.4
H    12.5   -2.6   -1.4
H    -6.0    1.9   11.3
H     7.1   -5.3    9.4
H     7.9    5.7   -8.5
I    -6.1  -10.3   -5.0
I    -6.4   10.2   -4.8
H     0.8   11.1   -6.6
H    -9.1   -4.4   -8.1
C    -9.7    5.5   -6.6
H     3.8   -3.6  -11.9
H   -10.6   -4.2   -6.2
N    -1.3   11.1   -6.7
H     0.1  -10.0    8.3
H    -5.7   -1.2  -11.7
H    -1.1  -11.4   -6.2
C     9.4   -5.2   -7.4
H     0.3  -10.0   -8.5
H     9.0    4.5    8.3
P     8.7   -0.0    9.8
H    -5.7    3.6   11.2
H    -4.0   -2.8  -12.2
H   -10.5    4.8   -6.2
H    10.2   -5.1   -6.6
N     8.9    5.5   -8.1
H     8.7   -9.7    2.1
H     9.5   -4.4   -8.1
C     0.0   11.0   -7.4
H     8.0  -10.6   -0.1
H    12.8    2.0    2.8
H     7.9   10.7    0.0
H     8.6    9.9    2.2
H     9.2    4.6   -8.5
P     4.0    8.1    9.8
P     4.1   -8.1    9.8
H    -0.1   10.0    8.9
I     2.2    0.3  -13.2
H     4.4   12.6   -1.5
N    -0.3  -10.7   -8.1
N     8.7    5.4    8.7
H     3.9  -12.6    2.7
I    -4.1   10.2    7.8
H    -2.1   11.0   -7.4
I    -3.9  -10.2    7.8
H    -9.4    4.6   -8.5
H   -10.0    6.5   -6.3
I    -1.4   -2.0  -13.3
H     9.3   -4.5    8.7
N   -10.5   -5.1   -6.7
I    -7.7    7.9    7.8
H    -9.0  -10.0   -0.1
H    -9.6    4.5    8.3
I     2.9    5.9   11.8
H    -9.1   -6.2   -7.9
H    -9.3   -4.5    8.7
H    -4.3  -12.8    0.6
H    -1.4   12.0   -6.2
H    -4.9   12.6   -1.5
H    -1.3  -10.5   -8.5
H    -1.5  -10.6    8.3
H     5.4   -2.8  -12.2
H    -5.5   -3.6  -11.9
I    10.0    2.3   -9.0
H   -10.7   -5.9   -6.1
I    -7.6   -8.3    7.8
H    -9.2   10.1    0.0
H    12.7   -3.4   -3.7
H     3.3  -13.3    0.5
I     2.8   -6.1   12.0
H     3.3   12.8   -3.7
I    11.0    8.1   -0.6
I    -1.6    2.2  -13.5
I    11.1   -8.1   -0.6
P    -5.2   -8.1    9.8
H     3.7   -1.8   13.2
H     5.0  -12.8    0.6
H    12.7   -1.3    5.1
C    13.5    2.7    0.9
