         400
 sphere cut out from bulk 
P    -0.4    0.0    0.1
I     2.2   -0.5   -1.8
I     1.5    0.5    2.6
I    -0.3    3.2   -0.7
I    -0.5   -3.1    0.7
I    -2.3   -0.5   -2.5
I    -3.0    0.5    1.8
H     2.8    2.3   -0.0
H     3.1   -2.3   -0.2
H    -0.8   -2.3   -3.2
H    -3.7   -2.3    0.3
H     0.6   -3.1   -2.9
H     0.3    3.1   -3.2
H    -3.9    2.3    0.3
C     3.3    3.2    0.4
N    -0.2   -3.2   -3.5
H    -1.0   -3.1    3.3
H    -1.4    3.2    3.2
H     3.3    3.2    1.5
N     3.6   -3.2    0.2
H     0.7    2.4    4.2
H     3.5   -3.2    1.2
H     2.8    4.1   -0.0
H     3.1   -4.0   -0.2
H     1.0   -2.2    4.5
H    -1.7    2.3   -4.3
H    -0.8   -4.0   -3.2
C    -4.1   -3.1   -0.2
H     0.7    2.3   -4.7
H    -4.0   -3.1   -1.2
N     0.2    3.1   -4.3
N    -4.4    3.2   -0.1
H    -3.6   -4.0    0.3
C    -1.2    3.2    4.3
N    -0.9   -3.1    4.4
H    -1.4   -2.3    4.8
H    -4.3    3.2   -1.1
H    -1.7    2.3    4.7
N     0.2    3.2    4.6
H    -3.9    4.0    0.3
N     4.7    3.2   -0.1
H     0.7   -2.3   -5.1
H     5.2    2.3    0.3
C    -1.2    3.1   -4.7
C     0.5   -3.1    4.9
H     0.7    4.0    4.2
C     0.1   -3.2   -4.9
H     4.8    3.2   -1.1
H     5.5   -2.3    0.3
C     5.0   -3.1   -0.2
P     4.2   -0.0   -4.3
P     4.2    0.0    4.4
H     1.0   -4.0    4.5
H     5.1   -3.1   -1.2
H    -1.7    4.0   -4.3
H     0.7    4.0   -4.7
P    -0.4    6.3    0.1
P    -0.4   -6.3    0.1
H    -1.4   -4.0    4.8
I     4.1   -3.1    3.7
I     6.1    0.5    1.8
N    -5.6   -3.2    0.2
I     2.2   -5.7   -1.8
H    -0.8   -3.2   -5.5
H    -1.7    4.1    4.7
I     1.6    0.5   -6.2
I     4.3    3.1   -3.7
H    -6.0   -2.3   -0.2
H     0.3    3.2    5.6
I     1.5    5.8    2.5
P    -5.0   -0.0   -4.3
H     5.2    4.0    0.3
H     0.7   -4.1   -5.1
H    -5.7   -3.2    1.2
P    -5.0    0.0    4.4
C    -5.8    3.2    0.4
I    -2.3   -0.4    6.2
H    -6.3    2.3   -0.0
I    -2.4   -5.8   -2.5
H    -1.3    3.1   -5.8
H     0.5   -3.1    5.9
H    -5.8    3.2    1.5
I    -3.0    5.8    1.8
H     5.5   -4.0    0.3
I    -4.9    3.1   -3.7
I    -5.0   -3.1    3.7
I     4.0   -3.1   -5.0
I     4.2    3.2    4.8
I    -7.0   -0.5   -1.8
H    -6.0   -4.0   -0.2
I     6.8   -0.5   -2.5
I     2.3   -0.4    7.0
I     1.5   -6.8    2.5
I     2.2    6.9   -1.8
H    -6.3    4.1   -0.0
I    -4.9    3.2    4.8
I    -3.1    0.4   -7.0
I    -3.0   -6.8    1.8
I    -2.4    6.8   -2.5
I    -5.2   -3.1   -5.0
I    -7.6    0.5    2.6
I     1.7    5.7   -6.3
I     6.1    5.8    1.8
H     3.2    3.4   -7.3
P     4.2   -6.2   -4.3
P     8.7    0.0    0.1
P     4.2    6.3    4.4
P     4.2   -6.3    4.4
I    -0.2    3.2    8.2
P     4.2    6.4   -4.3
P    -0.4    0.1    8.8
H     7.4    2.3   -4.3
I    -2.3   -5.9    6.2
P    -0.4    0.0   -8.9
H     3.9   -2.6   -7.6
H     7.8    3.2    3.2
I    -0.5   -3.1   -8.4
H     2.8   -8.5   -0.0
P    -4.9   -6.2   -4.3
H    -3.9   -3.2    7.5
H     7.4    2.3    4.7
H     3.0    2.3    8.3
H     4.5    2.4   -7.5
P    -4.9    6.3    4.4
P    -5.0   -6.3    4.4
H     3.1    8.6   -0.2
P    -4.9    6.4   -4.3
H    -4.6    2.4   -7.5
I    -7.0   -5.7   -1.8
H    -0.8    8.6   -3.2
I     6.8   -0.4    6.2
I     8.7   -3.1    0.7
I     6.8   -5.8   -2.5
I     6.1    0.4   -7.0
H     8.4   -2.3   -3.2
I     6.1   -6.8    1.8
H    -3.6    8.6    0.3
H     7.7   -2.3    4.8
I     2.2   -5.9    6.9
H     8.2   -3.1    3.3
I     8.8    3.2   -0.7
N     4.0    3.3   -7.9
H    -4.1   -1.6   -8.3
I     1.7   -6.9   -6.3
H    -3.9   -8.6    0.3
I    -2.3    6.7    6.2
I    -0.3   -9.4   -0.7
H     7.4    4.0   -4.3
H     3.5   -1.9    8.6
I    -0.5    9.5    0.7
H    -8.5   -3.1   -2.9
I    -2.9    5.9   -6.9
C     7.9    3.2    4.3
H    -4.5    3.0    7.8
P    -9.5    0.0    0.1
H     0.7   -8.6    4.2
H     4.6    3.0    7.8
H    -5.2   -2.6   -7.6
H    -8.2   -2.2    4.5
H     3.2    4.1    8.1
H     7.4    4.1    4.7
C     3.7    3.2    8.4
C     7.9    3.1   -4.7
H     1.0    8.6    4.5
H    -8.5    2.4    4.2
H    -1.7   -8.5   -4.3
H     5.3   -3.2    7.5
H     8.3   -4.0   -3.2
H    -4.4    4.1   -7.7
N     4.3   -2.4   -8.5
I    -6.9   -0.4    7.0
I    -0.5   -3.1    9.3
I    -7.5    0.5   -6.2
N     8.2   -3.1    4.4
H     0.7   -8.6   -4.7
H     5.0   -1.6   -8.3
I     2.2    6.7    6.9
H    -1.7   -8.5    4.7
H     4.7    4.1   -7.7
I    -7.6    5.8    2.5
H     0.6    9.4   -2.9
H     0.7    8.5   -5.1
H     7.7   -4.0    4.8
N    -5.1    3.3   -7.9
H     3.5   -1.9   -9.1
I     6.8    6.8   -2.5
H    -1.4    8.6    4.8
H    -8.5    2.3   -4.7
I    -7.0    6.9   -1.8
H    -8.9    3.1   -3.2
I    -9.4    3.2   -0.7
I    -0.2    3.1   -9.5
H    -5.9    3.4   -7.3
H     0.2   -9.5   -3.2
C     3.3   -9.4    0.4
H    -3.5   -4.0   -8.5
H     5.2   -8.6    0.3
H    -1.4   -9.4    3.2
N    -0.2    9.4   -3.5
N     8.9   -3.2   -3.5
N    -4.9   -2.4   -8.5
H    -1.0    9.5    3.3
I    -2.9   -6.7   -6.9
N     3.6    9.4    0.2
H     3.3   -9.4    1.5
H    -8.4   -2.3   -5.1
H     3.5    9.4    1.2
H     3.0    2.3   -9.4
H    -8.2   -4.0    4.5
I    -9.6   -3.1    0.7
C    -4.3   -3.5    8.5
H     5.5    8.6    0.3
H     4.1   -4.3    8.4
H     7.8    3.1   -5.8
H    -8.5    4.0    4.2
C    -4.1    9.4   -0.2
H    -4.1   -1.6    9.4
H    -4.0    9.5   -1.2
N     0.2   -9.5   -4.3
N     4.3   -2.3    9.2
C    -8.6   -3.1    4.9
N    -9.0    3.1   -4.3
C     4.9   -3.5    8.5
N    -4.4   -9.4   -0.1
H     9.4    3.1   -3.2
C    -1.3   -9.4    4.3
H    -5.6   -1.9    8.6
H    -4.3   -9.4   -1.1
N    -9.3   -3.2   -3.5
H    -8.5    4.0   -4.7
N    -0.9    9.5    4.4
N     0.2   -9.4    4.6
C     3.7    3.2   -9.3
I    -7.6   -6.8    2.5
H     8.3   -3.2   -5.5
H    -6.0    8.6   -0.2
C    -5.4    3.2    8.4
H    -3.5   -3.9    9.1
N    -8.9    3.2    4.6
N     4.7   -9.4   -0.1
H    -6.1    2.3    8.3
C     0.1    9.4   -4.9
C    -1.3   -9.5   -4.7
H    -6.3   -8.5   -0.0
H     4.8   -9.4   -1.1
C     0.5    9.5    4.9
N    -4.8   -2.3    9.2
H     9.8   -3.1   -2.9
H    -8.4   -4.1   -5.1
H    -5.1   -4.3    8.4
H    -9.9   -2.3   -3.2
C     5.0    9.4   -0.2
N     9.3    3.1   -4.3
H     2.8  -10.3   -0.0
C    -4.3   -3.6   -9.2
H     5.0   -1.6    9.4
C    -9.0   -3.2   -4.9
H     3.1   10.3   -0.2
P     8.7    6.3    0.1
P     8.7   -6.3    0.1
P    -0.3   -6.3    8.8
H     5.1    9.5   -1.2
H    -0.8   10.3   -3.2
P    -0.3    6.3    8.8
H    -5.6   -1.9   -9.1
H    -5.9    4.1    8.1
H    -0.8    9.4   -5.5
P    -0.3    6.3   -8.9
N     9.3    3.2    4.6
H     3.2    4.1   -9.6
P    -0.4   -6.3   -8.9
H    -8.8    3.2    5.6
H     9.8    2.4    4.2
I     6.8   -5.9    6.2
I     2.3   -0.4  -10.7
N    -5.5    9.4    0.2
H     0.3   -9.4    5.6
H    -8.6   -3.1    5.9
C     9.3   -3.2   -4.9
C     4.8   -3.6   -9.2
I    10.6    0.5    2.6
I     6.2    5.9   -6.9
I     4.1    9.5    3.7
H     5.6   -4.0   -8.5
H    -3.6   10.3    0.3
H    -3.9  -10.3    0.3
I     4.3   -9.5   -3.7
H     4.1   -4.3   -9.3
H    -5.6    9.4    1.2
H     9.8    2.3   -4.7
H     0.7  -10.2    4.2
H   -10.1   -3.1    3.3
C    -5.8   -9.4    0.4
N     4.1    3.3    9.8
I    -3.0    0.5   10.7
H     3.9   -2.6   10.1
H    -1.3   -9.5   -5.8
H    -9.9   -4.0   -3.2
H     0.5    9.5    5.9
H    -5.9   -9.4    1.5
C     9.6   -3.1    4.9
C    -5.5    3.2   -9.3
I    -4.9   -9.5   -3.7
H    10.1   -2.2    4.5
H    -4.6    3.0   -9.9
H     4.6    3.0   -9.9
I    -7.5    5.7   -6.3
H     1.0   10.4    4.5
H     0.6  -10.3   -4.7
H    -3.9   -3.2  -10.1
H    -1.7  -10.3   -4.3
I    -5.0    9.5    3.7
H     4.5    2.4   10.1
H     9.9   -2.3   -5.1
H    -4.6    2.4   10.1
H     9.8    4.0    4.2
I    -6.9   -5.9    6.9
N   -10.1   -3.1    4.4
H   -10.5    3.2    3.2
P    -9.5    6.3    0.1
I     6.8    6.7    6.2
I     4.2   -9.4    4.8
H     3.2    3.5   10.4
H    -5.1   -4.3   -9.3
H    -1.4   10.3    4.8
H     5.7   -3.9    9.1
I     4.0    9.5   -5.0
P    -9.5   -6.3    0.1
I    11.3   -0.5   -1.8
I     6.2   -6.7   -6.9
H     9.5    3.2    5.6
H    -1.7  -10.3    4.7
H    -6.2    2.3   -9.4
H     0.7   10.3   -5.1
H     5.2  -10.3    0.3
N    -5.1    3.3    9.8
H     9.8    4.0   -4.7
I     1.6    0.5   11.4
H    -4.4    4.1   10.0
C   -10.4    3.2    4.3
H    -5.2   -2.6   10.1
I    -2.4   -0.5  -11.4
I    -4.9   -9.4    4.8
H     5.5   10.3    0.3
H     9.6   -3.1    5.9
I   -11.5   -0.5   -2.5
H     4.7    4.1   10.0
H    10.1   -4.0    4.5
H    -9.9   -3.2   -5.5
H   -10.6   -2.3    4.8
H     9.8   -4.1   -5.1
C   -10.4    3.1   -4.7
I    -6.9    6.7    6.9
H     5.2   -3.2  -10.1
H   -10.9    2.3   -4.3
I    -5.2    9.5   -5.0
H    -6.0   10.3   -0.2
I    -7.5   -6.9   -6.3
H    -6.0    4.1   -9.6
H   -10.8    2.3    4.7
H     7.4   -8.5   -4.3
H    -6.3  -10.3   -0.0
H     3.2   -9.2   -7.3
H     3.2   -8.5    8.1
H     0.5   -3.2  -11.7
H    12.0    2.3   -0.0
H   -10.5   -4.0    4.8
H     7.4   -8.5    4.7
I   -12.2    0.5    1.8
H   -10.4    3.1   -5.8
I     6.1    0.5   10.7
H    -4.4   -8.5   -7.7
H   -10.8    4.0   -4.3
H    -1.3    3.2   11.9
I     2.2   12.1   -1.8
I    10.7    0.5   -6.2
H     8.3    8.6   -3.2
P     8.8    0.1    8.8
H     4.7   -8.5   -7.7
I    10.7    5.8    2.5
H    -5.9    3.5   10.4
I     8.6   -3.1   -8.4
H    12.2   -2.3   -0.2
P     8.7    0.0   -8.9
H     0.3    3.2  -12.1
I     1.5  -12.1    2.6
H   -10.8    4.1    4.7
I    -0.2   -9.4    8.2
I     2.2   -5.9  -10.8
H     4.1    8.3    8.4
H     7.7    8.6    4.8
I     8.9    3.2    8.2
P    -0.4  -12.6    0.1
I    -2.3   12.1   -2.5
H    12.0    4.1   -0.0
H     7.8   -9.4    3.2
I    -2.9    5.9   10.8
I    -3.0  -12.1    1.8
H    -8.1    8.6    4.5
P    -0.4   12.6    0.1
