         400
 sphere cut out from bulk 
P    -0.6    0.1    0.2
I     1.9    0.5   -1.9
I     1.4   -0.4    2.6
I    -0.5   -3.2   -0.5
I    -0.8    3.2    0.8
H     2.7   -2.2   -0.1
I    -2.6    0.4   -2.4
I    -3.2   -0.5    1.9
H    -0.3   -2.6   -3.0
H     0.5    2.3   -3.3
H     3.8    2.0   -0.3
H    -1.3   -1.6   -3.9
C     3.1   -3.1    0.4
H    -3.7    2.4    0.3
H     3.1   -3.1    1.4
N    -0.6   -2.3   -4.0
H    -4.1   -2.3    0.4
H    -1.6   -3.1    3.1
H     0.5   -2.3    4.1
H     2.7   -4.0   -0.0
H    -1.3    3.2    3.4
H     0.2   -1.9   -4.5
H     0.8    2.3    4.3
N     0.4    3.2   -3.9
H    -1.7    3.2   -3.6
H     0.6    4.0   -3.3
C    -4.6    2.8   -0.3
H    -4.2    3.0   -1.3
C     4.6    2.8   -0.3
C    -1.5   -3.1    4.2
H     3.7    3.7    1.4
H     3.3    4.4   -0.2
H    -1.9   -2.2    4.7
N     0.0   -3.1    4.5
N    -4.6   -3.1   -0.0
N     4.6   -3.1   -0.0
H    -4.5   -3.1   -1.1
H     5.1   -2.3    0.4
C    -1.0    3.2   -4.4
N    -1.1    3.2    4.4
H    -1.6    2.3    4.8
H    -1.1    2.3   -5.1
H     1.1    3.2   -4.6
N     4.1    4.0    0.4
H    -4.1   -3.9    0.4
H    -5.3    2.0   -0.3
H     4.7   -3.1   -1.1
C     0.3    3.2    4.8
H     0.4   -4.0    4.1
H     4.9    3.0   -1.3
P     4.0   -0.1   -4.3
H     5.4    2.4    0.3
C    -1.2   -3.6   -4.6
H    -2.0   -3.9   -4.0
H     0.8    4.1    4.3
P     4.0    0.0    4.5
I     5.9   -0.5    1.9
I     1.9    5.7   -1.8
P    -0.6    6.3    0.1
P    -0.6   -6.3    0.1
I     4.2   -3.2   -3.6
I     3.9    3.2    3.8
H    -0.4   -4.3   -4.7
H     0.1   -3.1    5.6
H     5.0   -3.9    0.4
H    -4.4    4.7    0.5
H    -1.9   -4.0    4.7
N    -5.1    4.0    0.4
H    -1.6    4.0    4.8
I     1.5   -0.7   -6.3
I     1.4   -5.8    2.6
H    -1.1    4.1   -5.0
H     0.4    3.2    5.9
H    -1.5   -3.3   -5.6
P    -5.1   -0.1   -4.3
H    -5.4    3.7    1.4
H     4.8    4.7    0.5
C    -6.0   -3.1    0.4
I    -2.7    5.8   -2.3
H    -6.5   -2.2   -0.1
P    -5.1    0.0    4.5
I    -2.5    0.5    6.3
I    -5.0   -3.2   -3.6
I    -3.2   -5.8    1.9
H    -6.1   -3.1    1.4
I     3.8    3.1   -5.0
I     6.6    0.4   -2.4
I     4.0   -3.1    5.1
I    -5.2    3.2    3.8
I     2.1    0.5    7.0
H    -5.9    4.4   -0.2
I     1.9   -6.9   -1.8
I     1.4    6.8    2.6
I    -3.0   -0.5   -6.7
I    -7.3    0.5   -1.9
H    -6.5   -4.0   -0.0
I    -2.7   -6.8   -2.3
I    -3.2    6.8    1.9
I    -5.1   -3.1    5.1
I    -5.4    3.1   -5.0
I    -7.8   -0.4    2.6
I     5.9   -5.8    1.9
H     2.8   -2.4   -7.7
P     8.6    0.1    0.2
P     4.0    6.3   -4.3
P     4.0   -6.3   -4.3
P     4.0   -6.2    4.5
I    -0.5    3.1   -8.1
I    -0.4   -3.1    8.1
I     1.5   -5.8   -6.3
P    -0.6   -0.1   -8.7
H     7.6   -3.1    3.1
P     4.0    6.4    4.5
H     3.3    3.1   -7.6
H     7.4    3.2   -3.6
H     3.3   -8.2   -0.2
H     7.8   -1.6   -3.9
P    -0.6    0.0    8.8
H     7.3   -2.2    4.7
I     6.5    5.8   -2.3
I    -2.5    5.9    6.3
I     8.4    3.2    0.8
H     2.7    8.6   -0.0
H    -4.4   -7.9    0.5
H     7.2   -3.9   -4.0
I     6.1   -0.5   -6.7
H     7.9    3.2    3.4
I     6.6    0.5    6.3
H    -4.1    3.2    7.6
P    -5.1    6.3   -4.3
H     2.9   -4.1   -7.7
I     5.9    6.8    1.9
I     8.7   -3.2   -0.5
P    -5.1   -6.3   -4.3
H     7.5    2.3    4.8
H     0.6   -8.6   -3.3
H     4.8   -7.9    0.5
P    -5.2   -6.2    4.5
C     7.7   -3.1    4.2
H     3.0    2.4    8.5
I     2.0    5.9    7.0
P    -5.2    6.4    4.5
H     2.4   -3.1    8.5
I     1.5    6.8   -6.3
I    -7.2    5.7   -1.8
N     3.1   -3.2   -8.3
H    -4.0   -3.2   -7.9
I    -0.5    9.5   -0.5
H     7.2   -4.0    4.7
H    -8.6    2.3   -3.3
I    -0.8   -9.4    0.8
I    -3.1   -6.0   -6.8
N     4.1   -8.6    0.4
H    -0.4    8.3   -4.7
H    -3.8    2.2   -8.5
H     0.5    8.6    4.1
I    -2.5   -6.7    6.3
H    -4.1    8.7    0.4
H     0.8   -8.5    4.3
H    -4.5   -2.2    8.2
H     5.0    3.2    7.6
H     4.6   -2.2    8.2
N     8.0    3.2    4.4
I     6.5   -6.8   -2.3
N     8.5   -2.3   -4.0
P    -9.7    0.1    0.2
H    -8.4    2.3    4.3
H     8.9   -2.6   -3.0
H     3.7   -8.9    1.4
H     8.0    2.3   -5.1
H    -2.0    8.7   -4.0
H    -8.0    3.2   -4.6
H     3.0    2.2   -9.1
N     3.4    3.1   -8.6
C     8.1    3.2   -4.4
H     7.5    4.0    4.8
H    -8.7   -2.3    4.1
I    -7.6   -0.7   -6.3
C     8.0   -3.6   -4.6
H     3.0    4.0    8.5
H     2.4   -3.2   -9.1
I     2.0   -6.8    7.0
H    -1.1   -8.5   -5.0
I    -3.1    6.6   -6.8
H    -1.9    8.6    4.7
I    -7.1    0.5    7.0
H    -1.6   -8.6    4.8
H     5.1   -3.2   -7.9
I    -0.5    3.2    9.5
H    -8.6    4.0   -3.3
I    -0.4   -3.2   -9.5
H     7.6   -3.3   -5.6
N    -5.1   -8.6    0.4
I    -7.8   -5.8    2.6
C     3.1    9.5    0.4
H     5.1    8.7    0.4
H    -5.9    3.1   -7.6
N    -8.8    3.2   -3.9
H    -1.3   -9.4    3.4
H    -5.9   -8.2   -0.2
N     3.4    3.2    9.0
H    -3.8    2.3    9.1
H    -3.8    4.0   -8.5
H    -1.6    9.5    3.1
H     3.1    9.5    1.4
C    -4.2    3.2    8.7
I    -9.6   -3.2   -0.5
H    -4.5   -4.0    8.2
I    -7.2   -6.9   -1.8
H     4.6   -4.0    8.2
H    -9.4   -2.6   -3.0
N     0.4   -9.5   -3.9
C    -1.2    9.1   -4.6
H    -6.3   -2.4   -7.7
H    -9.0   -1.9   -4.5
H    -1.7   -9.4   -3.6
N     3.1   -3.1    9.3
H     5.3    2.2   -8.5
H    -8.4    4.1    4.3
H     3.0    3.9   -9.1
H     8.0    4.1   -5.0
C     4.5   -3.1    8.8
C    -4.2    3.1   -8.9
C     4.5   -3.2   -8.8
H    -8.7   -4.0    4.1
C    -4.7   -3.1    8.8
I    -9.9    3.2    0.8
C     4.9    3.2    8.7
C    -1.0   -9.4   -4.4
H    -5.4   -8.9    1.4
C    -4.7   -3.2   -8.8
N    -1.1   -9.4    4.4
H     9.7    2.3   -3.3
H    -0.3   10.0   -3.0
C    -1.5    9.5    4.2
N     0.0    9.5    4.5
H     2.8   -2.3    9.9
H     9.3   -1.9   -4.5
C    -8.8    3.2    4.8
H    -4.5    9.5   -1.1
N    -4.6    9.5   -0.0
H    -4.2   -9.6   -1.3
N     4.6    9.5   -0.0
C     0.3   -9.4    4.8
H     1.1   -9.5   -4.6
I    -7.7    6.8    2.6
P     8.5   -6.3    0.1
P     8.6    6.3    0.1
H     4.7    9.5   -1.1
C     4.9    3.1   -8.9
H    -3.8    4.1    9.1
N    -9.1   -3.1    4.5
N     9.1   -3.1    4.5
H    -4.5   -2.3   -9.4
H     9.6   -2.3    4.1
H     4.6   -2.3   -9.4
P    -0.6    6.2   -8.7
N     9.5    3.2   -3.9
H    -6.3   -4.1   -7.7
H     2.7   10.4   -0.1
I     2.1    0.4  -10.6
N    -9.8   -2.3   -4.0
H    -6.2    2.4    8.5
N    -6.1   -3.2   -8.3
H    -6.5    8.6   -0.0
H     5.3    2.3    9.1
N    -5.7    3.1   -8.6
H     5.3    4.0   -8.5
H     0.5  -10.3   -3.3
P    -0.6   -6.4   -8.7
H     8.8   -4.3   -4.7
H     4.9   -9.6   -1.3
I    10.5   -0.4    2.6
C    -4.6   -9.9   -0.3
P    -0.6   -6.3    8.9
I     6.6    5.9    6.3
C     4.6   -9.9   -0.3
I     6.1   -6.0   -6.8
H    -3.7  -10.2    0.3
H    -4.0   -3.1    9.7
I     3.9   -9.4    3.8
I     4.2    9.4   -3.6
P    -0.6    6.3    8.9
H     0.1    9.5    5.6
H     9.7    4.0   -3.3
H     3.3    3.2   10.0
H    -8.8    3.2    5.9
H    -1.5    9.3   -5.6
H     2.9   -4.0    9.9
N    -0.6   10.3   -4.0
H    -9.0   -3.1    5.6
C     9.4    3.2    4.8
H     9.9    2.3    4.3
N    -5.7    3.2    9.0
H     0.4   -9.4    5.9
H     0.5   10.3    4.1
H    -4.1   10.4    0.4
H     9.6   -4.0    4.1
H    -6.2    2.2   -9.1
I    11.0    0.5   -1.9
H    -4.5   -4.1   -9.4
H     0.7  -10.3    4.3
I    -5.0    9.4   -3.6
H    -4.1    3.1  -10.0
H     4.6   -4.1   -9.4
I    -3.0   -0.4   10.8
I     6.1    6.6   -6.8
H    -6.2    4.0    8.5
C    -6.0    9.5    0.4
H     3.8  -10.6   -0.3
H     9.3   -3.1    5.6
H   -10.5   -1.6   -3.9
H     5.3    4.1    9.1
H    -6.8   -3.1    8.5
H     5.1   -3.1    9.7
I     6.6   -6.7    6.3
H   -10.4    3.2    3.4
H    -6.1    9.5    1.4
I    -5.2   -9.4    3.8
I     3.8   -9.5   -5.0
I     1.5   -0.5   11.3
H    -9.5   -4.3   -4.7
H    -1.6  -10.3    4.8
I    -7.6   -5.8   -6.3
I     4.0    9.5    5.1
C   -10.1    3.2   -4.4
H     5.1   10.4    0.4
N    -6.1   -3.1    9.3
I    -2.5    0.4  -11.3
H    -1.1  -10.3   -5.1
H    -1.9   10.4    4.7
H     9.9    4.1    4.3
I    -7.1    5.9    7.0
H     5.4  -10.2    0.3
H   -10.7   -3.1    3.1
P    -9.7    6.3    0.1
P    -9.7   -6.3    0.1
H     0.2   10.7   -4.5
H     5.0    3.1  -10.0
H     9.5    3.2    5.9
H    -6.2    3.9   -9.1
N   -10.3    3.2    4.4
H    10.3    3.2   -4.6
H   -10.3    2.3   -5.1
H    -1.3   11.0   -3.9
H    -6.8   -3.2   -9.1
C   -10.6   -3.1    4.2
C   -10.3   -3.6   -4.6
H     2.9    8.5   -7.7
H    -5.4  -10.6   -0.3
H   -10.9    3.2   -3.6
I    -5.1    9.5    5.1
H    -6.3   -2.3    9.9
H     7.2    8.7   -4.0
I   -11.7    0.4   -2.4
I    -7.6    6.8   -6.3
H    -5.8    3.2   10.0
H   -10.8    2.3    4.8
I    -5.4   -9.5   -5.0
H    11.8   -2.2   -0.1
I    -7.1   -6.8    7.0
H     0.4    3.1  -11.7
H   -10.3    4.1   -5.0
H     7.2    8.6    4.7
H   -11.0   -2.2    4.7
I     8.6    3.1   -8.1
I     2.0    5.7  -10.6
P     8.6   -0.1   -8.7
H    -6.5   10.4   -0.1
P     8.6    0.0    8.8
I    10.5   -5.8    2.6
I     8.8   -3.1    8.1
H    -6.3   -4.0    9.9
H     7.5   -8.6    4.8
I    10.7   -0.7   -6.3
I     1.9  -12.2   -1.9
H   -10.8    4.0    4.8
H     3.0   -8.6    8.5
H     0.1   -3.3  -12.0
I     6.1   -0.4   10.8
H    -1.5   -3.2   12.0
H    11.8   -4.0   -0.0
H   -11.1   -3.9   -4.0
H   -10.7   -3.3   -5.6
I   -12.3   -0.5    1.9
I    -0.4    9.5    8.1
I     1.4   12.2    2.6
H     7.4   -9.4   -3.6
H     7.6    9.5    3.1
I    -0.6   -9.6   -8.1
P    -0.6  -12.6    0.2
I    11.0    5.7   -1.8
H    -8.6   -8.6   -3.3
H     3.3   -9.5   -7.6
I     8.4   -9.4    0.8
H   -11.1   -4.0    4.7
I    -3.1   -5.9   10.8
C    12.3   -3.1    0.4
H    12.2   -3.1    1.4
P    -0.6   12.7    0.2
