         400
 sphere cut out from bulk 
P     1.1    0.5   -1.3
I    -0.6   -1.7    0.3
I     1.0    2.2    1.4
H     1.2   -1.6    2.4
H    -1.6    2.4    1.3
H     1.4   -0.0    2.9
I    -1.6    1.9   -2.4
N     1.5   -1.0    3.2
H    -2.6    2.8   -0.0
H    -3.5    0.9    1.3
I     3.7   -1.1   -0.3
N    -2.5    2.8    1.0
H     1.2   -3.4   -1.5
H     2.5   -1.2    3.3
H    -0.3   -1.1    4.2
I     1.3   -1.2   -4.0
C    -3.6    2.0    1.7
C     0.7   -1.3    4.4
H    -3.5   -0.1   -3.2
H    -2.6    3.8    1.4
P    -3.3   -3.2    1.2
I     2.9    2.8   -2.6
H    -1.9   -1.5   -4.1
H    -3.5    2.0    2.7
C     1.6   -4.4   -1.9
H     4.2    2.4    1.4
H     1.4    4.7   -1.4
H    -3.2   -2.4   -3.2
I    -5.1   -1.1   -0.3
H     0.9   -2.4    4.7
H    -4.6    2.4    1.4
C    -3.0   -1.8   -4.1
H     1.1   -0.7    5.2
H     2.7   -4.4   -1.8
H     5.3    0.9    1.3
H     1.2   -4.5   -2.9
H     1.4   -5.4   -0.1
N    -3.8   -0.6   -4.0
H     0.0   -5.5   -1.0
I    -3.7   -1.4    4.0
H     0.0    5.6   -1.0
H     4.0   -0.8   -3.9
N     1.1   -5.5   -1.0
N     1.1    5.6   -1.0
C     5.2    2.0    1.7
I    -0.8    2.0    5.4
H     1.4    5.7   -0.1
P     1.1    4.2    3.9
I     2.8   -4.8    2.1
H     1.0    1.2   -5.8
I    -2.9   -5.1   -1.3
H    -3.7    0.0   -4.8
H     1.2    2.9   -5.2
H     5.3   -0.1   -3.2
I    -1.6   -5.3    2.9
H    -4.8   -0.8   -3.9
H     5.3    2.0    2.7
H    -3.3   -2.4   -5.0
N     5.0   -0.6   -4.0
C     0.9    2.3   -6.0
P     5.5   -3.2    1.2
I    -1.6    5.7    2.9
P    -3.3    4.2   -3.9
I     5.1   -1.4    4.0
H     1.4   -6.4   -1.4
H    -0.2    2.5   -6.2
I    -3.0    5.9   -1.3
I     3.6    2.7    5.1
H     6.2    2.8   -0.0
N     6.3    2.8    1.0
H     5.7   -2.4   -3.2
H     5.2    0.0   -4.8
I    -6.0    2.8   -2.6
C     1.6    6.7   -1.9
I     2.8    6.2    2.1
H    -6.3   -1.2    3.3
H     1.2    6.5   -2.9
C     5.8   -1.8   -4.1
P     1.2   -3.2   -6.5
H     2.7    6.6   -1.8
P    -3.4    0.6    6.5
H     6.3    3.8    1.4
I    -0.7   -5.4   -5.1
I    -0.7    5.6   -5.1
H    -3.8   -3.6    5.6
H     7.2    2.4    1.3
I    -3.6    2.2   -6.5
I    -5.2    2.7    5.1
H    -6.1   -4.4   -1.8
P    -7.7    0.5   -1.3
H     5.6   -2.4   -5.0
H    -2.6   -7.3    1.4
H     1.2    7.6   -1.5
I     7.2    1.9   -2.4
N     1.6    2.6   -7.3
I     5.9   -5.1   -1.3
I    -1.4   -1.8   -7.6
P     1.1   -6.8    3.9
P     5.5    4.2   -3.9
I    -6.0   -4.8    2.1
H     2.6    2.4   -7.1
H    -7.4   -0.0    2.9
N    -7.3   -1.0    3.2
I     3.7   -4.7   -5.4
I     1.2   -4.8    6.4
H    -7.7   -1.6    2.4
H    -3.4    5.1    5.5
H     6.9   -1.5   -4.1
H     1.1    2.9    7.6
I    -7.8    2.2    1.4
I     2.7   -0.8    7.8
H     5.0   -3.6    5.6
I     8.2   -1.7    0.3
H    -2.0   -5.1    6.3
I    -1.7   -1.7    8.1
H     1.3    2.0   -8.1
I     5.9    5.9   -1.3
H    -7.6   -3.4   -1.5
H     1.5    3.6   -7.5
P     5.4    0.6    6.5
P    -3.3   -6.9   -3.9
I    -7.5   -1.2   -4.0
P    -3.3    7.8    1.2
I     5.2    2.2   -6.5
N    -3.9   -4.2    6.5
C    -7.2   -4.4   -1.9
H    -2.6   -8.3   -0.0
N    -2.5   -8.3    1.0
H    -3.4   -6.0    5.5
H     3.9   -4.4    6.5
I    -5.1   -4.7   -5.4
H    -7.4    4.7   -1.4
H    -1.6   -8.7    1.3
H    -2.0    5.9    6.3
I    -6.0    6.2    2.1
C    -3.1   -5.4    6.4
H    -3.7   -3.6    7.3
I     2.9   -1.2   -8.4
I     1.0   -8.8    1.4
I     1.2    6.2    6.4
C    -3.1    5.6    6.4
I     3.7    6.3   -5.4
N     4.9   -4.2    6.5
I     2.9   -8.2   -2.6
H    -7.4   -5.4   -0.1
H     1.3    1.1    9.1
H     5.4    5.1    5.5
C     1.5    3.1    8.6
H    -6.2    6.6   -1.8
H    -4.9   -4.4    6.5
C    -8.1   -1.3    4.4
H    -7.6   -4.5   -2.9
H    -7.4    5.7   -0.1
H    -7.7   -0.7    5.2
H    -3.3    5.0    7.2
I    -0.6    9.4    0.3
I     7.2   -5.3    2.9
H     2.5    3.1    8.6
H    -7.9   -2.4    4.7
H     8.5   -1.1    4.2
N    -7.8   -5.5   -1.0
I    -9.5   -1.7    0.3
N    -7.8    5.6   -1.0
I    -1.6   -9.2   -2.4
P     5.5   -6.9   -3.9
H    -0.1    2.0    9.4
H     5.2   -3.6    7.3
I     7.2    5.7    2.9
H    -7.6    2.9   -5.2
P    -7.8    4.2    3.9
P     5.5    7.8    1.2
N     0.9    2.0    9.4
P     1.0   -3.1    9.1
H     6.3   -7.3    1.4
H    -3.2    8.6   -3.2
H     4.2   -8.7    1.4
H    -6.2    2.4   -7.1
H     5.4   -6.0    5.5
I    -5.1    6.3   -5.4
P    -3.2    0.4   -9.2
H     1.2   -8.2   -5.2
H    -7.8    1.2   -5.8
I     8.0    2.0    5.4
H     1.2    9.5    2.4
H    -7.4   -6.4   -1.4
H     0.9    8.7    4.7
H    -4.6   -8.7    1.4
H     1.1    4.0    9.0
C    -3.6   -9.1    1.7
I    -6.1   -0.8    7.8
I    -3.1    2.3    9.2
H    -3.3   -6.0    7.2
P     9.9    0.5   -1.3
C    -7.2    6.7   -1.9
H    -3.4   -5.5   -7.7
H     3.9    6.6    6.5
H    -3.5   -9.1    2.7
H    -3.8    7.5    5.6
H    -3.4    5.6   -7.7
H    -2.4   -3.7   -9.1
C     5.7   -5.4    6.4
H    -9.1   -1.1    4.2
I     9.8    2.2    1.4
N    -3.9    6.9    6.5
C     5.7    5.6    6.4
C    -8.0    2.3   -6.0
P     1.2    7.8   -6.5
I    -5.9   -1.2   -8.4
I    -0.5    1.9  -10.1
H     6.2   -8.3   -0.0
H    10.0   -1.6    2.4
I     3.6   -8.3    5.1
H     5.5    5.0    7.2
H    -8.8   -5.5   -1.0
H    -7.6    6.5   -2.9
N     6.3   -8.3    1.0
H     8.8   -5.5   -1.0
H    -8.8    5.6   -1.0
H     8.8    5.6   -1.0
I    -5.9   -8.2   -2.6
C    -3.0    9.2   -4.1
H    -4.9    6.6    6.5
I    -0.8   -9.0    5.4
H    -3.3    8.7   -5.0
I     1.1   -5.3   -9.1
N    -7.2    2.6   -7.3
H    -1.9    9.5   -4.1
P    -7.6   -3.2   -6.5
H     6.8   -5.1    6.3
C     5.2   -9.1    1.7
H    10.2   -0.0    2.9
C     9.6   -1.3    4.4
H    -1.5   -5.1   -9.2
H    -0.2   -8.6   -6.2
N     4.9    6.9    6.5
H     5.0    7.5    5.6
N     1.5   10.0    3.2
I     3.7   10.0   -0.3
I     1.3    9.8   -4.0
H     1.3    2.1   10.4
H    10.0   -3.4   -1.5
H     2.5    9.9    3.3
C     0.9   -8.8   -6.0
C     0.7    9.7    4.4
H     1.5   -7.5   -7.5
I     7.4   -1.8   -7.6
P     1.1  -10.6   -1.3
H   -10.4    2.4    1.3
H     1.5   -1.8  -10.5
H    -3.4    4.5   -9.2
H     5.7    8.6   -3.2
H    -0.3    9.9    4.2
H    -3.5  -10.1    1.3
N    -2.4   -4.7   -9.4
P     5.6    0.4   -9.2
I   -10.4    1.9   -2.4
H    -2.7   -0.8   10.4
I     1.1    5.8   -9.1
N    10.3   -1.0    3.2
H     5.3   -9.1    2.7
H    -7.6    7.6   -1.5
I     7.1   -1.7    8.1
H     8.6    2.5   -6.2
H     5.5   -5.5   -7.7
H     5.5   -6.0    7.2
C    -3.5   -5.5   -8.8
H     5.5    5.6   -7.7
C    -3.5    5.6   -8.8
H     6.8    5.9    6.3
I    10.2   -1.2   -4.0
I     8.1   -5.4   -5.1
H    -3.7    7.4    7.3
H     9.7   -2.4    4.7
P    -7.7   -6.8    3.9
I    -3.7    9.6    4.0
I    -7.6   -4.8    6.4
I     5.7    2.3    9.2
I    -5.2   -8.3    5.1
H    -6.3    3.1    8.6
H    -1.5    6.0   -9.2
H    -7.3    3.6   -7.5
I     8.1    5.6   -5.1
H     1.1   -8.1    7.6
H    -7.7    2.9    7.6
I    -5.1   10.0   -0.3
I    -9.6    2.0    5.4
H    -7.5    2.0   -8.1
H    -9.0    2.5   -6.2
H     9.9   -0.7    5.2
H     4.4   -5.1   -9.1
N     1.6   -8.5   -7.3
H    -4.5   -5.1   -9.1
H    10.2    4.7   -1.4
H     7.2   -8.7    1.3
N     9.9   -5.5   -1.0
H    10.0   -4.5   -2.9
N     9.9    5.6   -1.0
C    10.4   -4.4   -1.9
P     9.9    4.2    3.9
H     5.6    8.7   -5.0
H     1.1   -7.0    9.0
H     9.8    1.2   -5.8
H     1.0   -9.9   -5.8
H     5.3  -10.1    1.3
H     1.4   11.0    2.9
H     1.4  -11.1    2.9
H     2.6   -8.7   -7.1
H    10.2   -5.4   -0.1
H     5.4    4.5   -9.2
I    -3.6   -8.9   -6.5
I     5.1    9.6    4.0
H     5.2    7.4    7.3
H   -10.7   -1.5   -4.1
C     9.7    2.3   -6.0
H     0.1   -1.9  -11.5
N    -2.4    6.4   -9.4
P     1.1   11.5   -1.3
H     1.1   10.4    5.2
C     5.8    9.2   -4.1
C     5.3   -5.5   -8.8
H     4.0   10.2   -3.9
H    10.0    2.9   -5.2
C     5.3    5.6   -8.8
N     1.2   -1.9  -11.5
H    10.2    5.7   -0.1
H     4.3    6.0   -9.1
H     6.4   -3.7   -9.1
I     3.9    2.5  -10.8
C    -7.4    3.1    8.6
I     3.6   -4.7   10.1
I    -7.6    6.2    6.4
N   -11.4    2.8    1.0
H    -2.5   -4.7  -10.5
H    -4.5    6.0   -9.1
H    -3.4   -6.5   -9.2
H   -11.4    2.8   -0.0
C     1.5   -8.0    8.6
N    -2.7   -0.8   11.5
N    -3.8   10.5   -4.0
H    -7.5    1.1    9.1
H    11.3   -1.2    3.3
I    -7.8   -8.8    1.4
H    -1.7   -1.2   11.7
I     7.2   -9.2   -2.4
H    -2.4    7.3   -9.1
I     0.9   -1.4   11.8
H    -4.8   10.2   -3.9
H    -3.5   11.0   -3.2
H     1.3    0.2  -11.9
I    -0.8   -5.3   10.8
I   -10.4   -5.3    2.9
H     2.5   -8.0    8.6
H   -11.4    3.8    1.4
H    -3.5  -11.1   -3.2
I    -9.5   -5.4   -5.1
I    -1.4    9.3   -7.6
H     6.1   -0.8   10.4
H    -2.7    0.2   11.8
P     1.0    7.9    9.1
I    -5.0    2.5  -10.8
H    10.2   -6.4   -1.4
H    -6.3    9.9    3.3
I    -9.5    5.6   -5.1
I    -2.8   -1.5  -11.8
H     1.3   -9.0   -8.1
I   -10.4    5.7    2.9
I     5.2   -8.9   -6.5
I    -0.8    5.8   10.8
N     5.0   10.5   -4.0
H     1.5   -2.8  -11.9
I    11.7    2.8   -2.6
H    10.0    6.5   -2.9
H    -7.6   -8.2   -5.2
I    -5.2   -4.7   10.1
N     6.4   -4.7   -9.4
P    10.0   -3.2   -6.5
H    -7.7    9.5    2.4
P    -7.8   -3.1    9.1
H    11.5   -4.4   -1.8
I     8.2    9.4    0.3
I    -1.7    9.3    8.1
N    -7.9    2.0    9.4
H     6.9    9.5   -4.1
H   -12.4    0.9    1.3
C     1.7   -0.8  -12.3
H     5.4   -6.5   -9.2
C    10.4    6.7   -1.9
H    -2.5    6.4  -10.5
I     3.6    6.4   10.1
H    -7.7    4.0    9.0
P     1.2    4.1  -11.8
N     1.5  -12.1    3.2
H    -3.6   12.0    1.3
P   -12.1   -3.2    1.2
H    -3.7  -11.0   -4.8
I    12.5   -1.1   -0.3
H    -3.7   -2.7   11.8
H     4.1   -1.2   11.9
H     5.3   11.0   -3.2
C   -11.8   -1.8   -4.1
