         400
 sphere cut out from bulk 
H     0.2   -0.3   -2.7
I    -1.0   -2.2   -1.1
H     1.8    0.2   -2.5
I     1.5   -0.7    2.6
N     1.0    0.0   -3.2
P    -0.7   -2.8    2.1
H    -0.4    1.4    3.3
H    -0.4    3.0    2.5
I     3.8    0.2   -1.1
H     1.3   -0.8   -3.8
H     0.5    2.1   -3.5
C    -0.7    2.5    3.4
C     0.8    1.2   -4.1
I    -3.4   -1.3    2.6
H    -3.0   -2.3   -2.5
P     4.1    0.7    2.1
I    -3.5    2.9    0.9
H    -1.8    2.5    3.5
H    -0.0    1.0   -4.8
H     1.7    1.4   -4.6
I     1.3   -5.0    0.9
P    -4.0    2.8   -2.1
H    -3.6   -1.3   -3.8
P     0.8   -4.9   -2.1
N    -3.8   -2.1   -3.2
H     1.0    3.0    4.5
I    -3.0    1.0   -4.5
N    -0.1    3.0    4.6
H    -4.7   -1.8   -2.7
I     1.8   -3.1   -4.5
I     3.0    4.2   -2.8
I    -1.8    4.8   -2.8
I    -5.8    0.2   -1.1
H     5.0   -1.8   -2.7
P    -5.5    0.7    2.1
H    -0.3    2.5    5.5
H    -0.4    4.0    4.7
I     3.5    2.7    4.4
I     1.3    6.1    0.9
H     4.4   -3.5    3.3
H     3.0   -4.6    3.5
H    -3.1   -3.5   -4.6
P     5.6    2.8   -2.1
C    -4.1   -3.3   -4.1
P     0.8    6.3   -2.1
I    -1.4   -4.8    4.4
I     6.1    2.9    0.9
H    -4.4   -4.1   -3.5
I     6.3   -1.3    2.6
N     5.8   -2.1   -3.2
C     4.1   -4.5    3.4
I    -1.8   -6.3   -2.8
H    -5.3   -3.5    3.3
H     4.4   -5.1    2.5
H     6.1   -1.3   -3.8
H    -2.7    2.5   -6.5
H     6.6   -2.3   -2.5
H     4.8   -3.0   -4.8
H    -4.8   -3.0   -4.8
H     2.3    1.0    7.1
I    -0.7    1.0    7.4
H     5.3   -4.1   -3.5
C     5.6   -3.3   -4.1
H    -5.2   -5.1    2.5
H    -3.9   -5.1    4.5
I    -1.4    6.3    4.4
H     4.4    6.0    2.5
C    -5.6   -4.5    3.4
H     3.0    6.5    3.5
I     1.1    2.7   -7.5
I     6.6    1.0   -4.5
I     3.0   -6.9   -2.8
I    -6.2    2.7    4.4
H    -1.4    3.0   -7.4
H    -2.5   -3.0    7.1
H    -0.8   -3.5    7.3
H     4.5    5.0    4.7
H     2.2   -4.6   -6.5
H    -7.9    0.2   -2.5
N    -2.4    3.0   -7.3
H    -1.2   -1.3    8.2
I    -6.7    4.2   -2.8
H    -5.2    6.0    2.5
N     4.8   -5.1    4.6
H     4.5   -4.6    5.5
N    -4.9   -5.1    4.6
C     4.1    6.6    3.4
H    -3.9    6.0    4.5
H     4.0    1.4    7.3
H    -0.4   -8.1    2.5
C     3.1    1.2    7.8
H    -0.4   -7.1    4.7
P    -0.7    8.3    2.1
H    -5.2    5.0    4.7
I    -8.2   -0.7    2.6
C    -1.7   -3.3    7.8
H    -2.7    4.0   -7.2
H     6.5   -3.5   -4.6
H    -5.2   -4.6    5.5
H    -6.6   -4.6    3.5
N     4.8    6.0    4.6
H     4.5   -6.1    4.7
H     5.8   -5.1    4.5
H    -4.4    7.0   -3.5
H     3.6   -0.8    8.2
I    -3.5   -8.2    0.9
H     7.8    2.5    3.5
N    -4.9    6.0    4.6
I    -1.0    8.9   -1.1
I     8.7   -2.2   -1.1
H     2.1    5.0   -7.2
I     4.1   -3.1    7.4
N    -1.5   -2.1    8.7
H     2.8    2.1    8.5
H    -2.8    1.4   -8.6
N    -8.7    0.0   -3.2
H    -8.4   -0.8   -3.8
C    -5.6    6.6    3.4
N     2.4   -5.1   -7.3
N    -0.1   -8.1    4.6
H    -8.0    1.4   -4.6
H    -5.2   -6.1    4.7
N     3.3    0.0    8.7
C    -0.7   -8.7    3.4
H    -5.6    1.4    7.3
H     1.0   -8.1    4.5
I    -0.9   -0.7   -9.3
I     1.8    8.0   -4.5
C    -3.1    2.5   -8.5
H     4.4    7.6    3.3
H     5.3    7.0   -3.5
H    -3.1    7.6   -4.6
H     2.2    6.5   -6.5
H    -1.8   -8.6    3.5
H     5.8    6.0    4.5
P    -4.0   -8.4   -2.1
H     2.1   -3.5   -8.6
I    -7.9   -3.1   -4.5
H     2.5   -0.3    9.3
H     0.7   -4.6   -8.4
P     9.0   -2.8    2.1
I     7.8    4.8   -2.8
H    -2.0   -4.1    8.5
H     4.5    6.5    5.5
I    -3.7   -4.8   -7.5
H     3.5   -5.1   -7.4
H    -0.7   -2.3    9.4
H    -4.1    2.5   -8.4
H    -3.0    8.9   -2.5
H     2.1   -6.1   -7.2
H     0.5   -9.1   -3.5
C    -4.1    7.8   -4.1
H    -2.3   -1.8    9.3
N     2.4    6.0   -7.3
I    -5.5   -3.1    7.4
I    -8.3   -5.0    0.9
C     1.8   -4.5   -8.5
H    -5.3    7.6    3.3
H     7.0    2.5   -6.5
C    -8.9    1.2   -4.1
C     8.9    2.5    3.4
H    -9.5   -0.3   -2.7
H     9.2    1.4    3.3
H    -6.6    6.5    3.5
H    -5.2    6.5    5.5
I    -6.7   -6.9   -2.8
H    -9.2    2.1   -3.5
H     9.2    3.0    2.5
P     1.8    0.7   -9.9
I     3.5   -8.4    4.4
H     3.5    6.0   -7.4
I     4.0   -1.3   -9.3
H     9.8   -0.3   -2.7
H    -6.1   -0.8    8.2
H    -0.3   -8.6    5.5
H    -8.7    3.0    4.5
H     4.1    0.2    9.4
H    -2.7    3.0   -9.4
H    -0.4   -9.7    3.3
I     6.1   -8.2    0.9
H    -7.3    1.0    7.1
P     5.6   -8.4   -2.1
C    -6.6    1.2    7.8
N    -3.8    9.0   -3.2
I     0.5    4.8    9.1
P    -8.9   -4.9   -2.1
P    -1.7    2.8    9.8
H     5.5    2.5   -8.4
I    -8.3    6.1    0.9
I     7.8   -6.3   -2.8
C     5.6    7.8   -4.1
H    -2.7   -7.1   -7.2
I    -3.7    6.3   -7.5
H     7.1   -3.0    7.1
I     8.3   -4.8    4.4
H     4.8    8.1   -4.8
H    -0.8    7.6    7.3
H    -4.8    8.1   -4.8
H     0.7    6.5   -8.4
I    -3.4    9.8    2.6
P    -3.0   -2.8   -9.9
I     6.0   -4.8   -7.5
H   -10.1    1.4    3.3
H    -4.7    9.3   -2.7
N     7.3    3.0   -7.3
C     0.8   -9.9   -4.1
N    -6.3    0.0    8.7
H     9.6    1.0   -4.8
H     7.0    4.0   -7.2
I     1.5   10.4    2.6
H   -10.1    3.0    2.5
H    -9.7    1.0   -4.8
H     1.7   -9.7   -4.6
H     5.0    9.3   -2.7
H    10.1    2.1   -3.5
H    -7.5   -4.6   -6.5
H     2.1   -5.1   -9.4
H    -5.5    0.2    9.4
C     1.8    6.6   -8.5
I    -4.3    4.2    9.1
H    -6.2   -5.1   -7.4
P   -10.4   -2.8    2.1
I   -10.6   -2.2   -1.1
I    -5.7   -1.3   -9.3
H     6.5    7.6   -4.6
H     1.3   10.3   -3.8
C     6.6    2.5   -8.5
H    -2.5    8.1    7.1
N     9.6    3.0    4.6
P    -8.9    6.3   -2.1
I     0.5   -6.3    9.1
H    -1.4   -8.1   -7.4
H    -6.9    2.1    8.5
H    -2.7   -8.6   -6.5
H     9.3    2.5    5.5
I     1.3   -2.2   10.8
N    10.6    0.0   -3.2
H     6.9    1.4   -8.6
H    -3.6    9.9   -3.8
H    -2.0    7.0    8.5
N    -2.4   -8.1   -7.3
H     9.3    4.0    4.7
N    -9.7    3.0    4.6
H     0.2   10.9   -2.7
N     5.8    9.0   -3.2
C   -10.4    2.5    3.4
C    -1.7    7.8    7.8
H    -0.0  -10.2   -4.8
C    10.4    1.2   -4.1
I     1.1   -8.4   -7.5
I     8.3    6.3    4.4
H     6.6    8.9   -2.5
I    -3.5    0.2   10.8
I     5.3    4.2    9.1
H     2.1    6.0   -9.4
I    -6.2   -8.4    4.4
P     4.1  -10.4    2.1
H     1.8  -10.9   -2.5
P     3.1   -4.9    9.8
H    -6.2    6.0   -7.4
I    11.1   -0.7    2.6
I    -3.0  -10.1   -4.5
I     6.0    6.3   -7.5
N    -7.2   -5.1   -7.3
H     8.3    3.0   -7.4
H    -7.5    5.0   -7.2
H    10.9   -0.8   -3.8
N     1.0  -11.1   -3.2
C     7.9   -3.3    7.8
H   -10.0    2.5    5.5
N     1.0   11.2   -3.2
I    -8.5    2.7   -7.5
I     3.8  -11.0   -1.1
I     8.9    1.0    7.4
H     2.1    7.6   -8.6
I     4.1    8.0    7.4
H     0.2  -11.4   -2.7
P    10.4   -4.9   -2.1
H    11.4    0.2   -2.5
H    -7.2   -0.3    9.3
H     1.8   11.3   -2.5
H   -10.0    4.0    4.7
H     8.4   -1.3    8.2
H    -7.5    6.5   -6.5
N    -7.2    6.0   -7.3
H    10.6    3.0    4.5
I     6.3    9.8    2.6
P    -5.5  -10.4    2.1
H     7.3   -1.8    9.3
I     3.8   11.3   -1.1
H    -7.6   -3.5   -8.6
I     3.8    2.9  -11.0
H     8.9   -3.5    7.3
P     3.1    6.3    9.8
H     6.9    3.0   -9.4
H    -7.5   -6.1   -7.2
I    -7.9    8.0   -4.5
I    11.0   -5.0    0.9
H     7.6   -4.1    8.5
N     8.1   -2.1    8.7
I    -1.0   -5.0  -11.0
H     7.8   -8.6    3.5
H     6.1    9.9   -3.8
P     6.6   -2.8   -9.9
I    -4.3   -6.9    9.1
I     1.5  -11.9    2.6
I    -5.5    8.0    7.4
H   -11.5    2.5    3.5
H     7.0   -7.1   -7.2
H    11.4    1.4   -4.6
P    10.4    6.3   -2.1
P     9.0    8.3    2.1
I     6.2    0.2   10.8
I     8.7    8.9   -1.1
I    -5.8  -11.0   -1.1
C    -7.9   -4.5   -8.5
C    -3.1   -8.7   -8.5
H     9.2   -8.1    2.5
I    -0.7  -10.1    7.4
I    11.0    6.1    0.9
H     1.3  -11.9   -3.8
H     9.3   -7.1    4.7
I    -1.0    6.1  -11.0
I     5.3   -6.9    9.1
H     2.3  -10.2    7.1
N    -1.5    9.0    8.7
P    -7.9    0.7   -9.9
I    11.4   -3.1   -4.5
H    -4.1   -8.6   -8.4
H    -2.7   -8.1   -9.4
H     2.8   -9.1    8.5
H    -8.7   -8.1    4.5
P     4.1   11.9    2.1
I    -5.8   11.3   -1.1
P    -6.5   -4.9    9.8
I   -11.5    4.8   -2.8
H     4.0   -9.7    7.3
I    -5.8    2.9  -11.0
I     8.8   -0.7   -9.3
I   -10.4    1.0    7.4
I   -11.0   -4.8    4.4
H     7.0   -8.6   -6.5
H    -1.2    9.9    8.2
I     6.6  -10.1   -4.5
C     8.9   -8.7    3.4
H     7.1    8.1    7.1
P     7.9    2.8    9.8
H    -0.7    8.9    9.4
H    -0.4   12.5    3.3
P    -1.7   -8.4    9.8
H    -0.0   12.1   -4.8
C     3.1   -9.9    7.8
C     0.8   12.3   -4.1
N     7.3   -8.1   -7.3
H    -7.6   -5.1   -9.4
H    -9.0   -4.6   -8.4
H   -10.0   -7.1    4.7
I     1.5    0.2  -13.1
H   -12.7   -2.3   -2.5
H     8.9   -2.3    9.4
H   -10.1   -8.1    2.5
I    -3.4  -12.5    2.6
H     5.5   -8.6   -8.4
P    -3.0    8.3   -9.9
I    -1.2    2.9   12.8
H   -10.5   -3.5    7.3
P    -5.5   11.9    2.1
H    -2.8   -9.7   -8.6
I    -3.0   12.1   -4.5
H    -2.3    9.3    9.3
C    -7.9    6.6   -8.5
P    -6.5    6.3    9.8
H     7.6    7.0    8.5
N     9.6   -8.1    4.6
H    -8.0   -9.7   -4.6
I   -13.0   -1.3    2.6
H    -9.2   -9.1   -3.5
H    -5.6   -9.7    7.3
I   -11.5   -6.3   -2.8
I    10.8    2.7   -7.5
P   -10.4    8.3    2.1
H    -3.6  -12.4   -3.8
I    -1.0  -13.4   -1.1
N    -9.7   -8.1    4.6
I   -11.0    6.3    4.4
H    -7.6    6.0   -9.4
I    -8.2   10.4    2.6
H     1.7   12.6   -4.6
I   -12.7    1.0   -4.5
I   -13.2    2.9    0.9
I    13.5    0.2   -1.1
H   -11.0    3.0   -7.4
C     7.9    7.8    7.8
I    12.7    4.2   -2.8
H     3.6   10.3    8.2
H     0.5   13.2   -3.5
I    -3.3   -2.2  -13.1
H   -10.9   -1.3    8.2
H    -7.9  -10.9   -2.5
H     8.9    7.6    7.3
