         400
 sphere cut out from bulk 
P    -0.5    0.0   -0.1
I     2.2   -0.5    1.7
I     1.5    0.4   -2.7
I    -0.3    3.1    0.6
I    -0.5   -3.2   -0.8
I    -2.5   -0.5    2.4
H     2.6    2.3    0.1
I    -3.0    0.4   -2.1
H     3.0   -2.3    0.1
H     0.5   -3.1    3.0
H    -3.7   -2.2   -0.3
H    -0.6   -2.1    3.8
H     0.2    3.1    3.2
C     3.5    2.7   -0.5
H     3.2    3.0   -1.5
H    -1.4    3.1   -3.1
H     0.2    1.8   -4.3
H     4.3    2.0   -0.6
N     3.5   -3.2   -0.2
H    -1.1   -3.2   -3.3
C     0.2   -2.8    3.9
H     3.4   -3.2   -1.3
H     3.1   -4.0    0.2
H    -1.8    2.1    4.2
H     0.6    2.2    4.6
H     0.9   -2.4   -4.4
N     0.1    3.1    4.2
H     1.0   -2.4    4.5
C    -4.2   -3.1    0.2
H    -4.9    2.0   -0.6
H    -4.1   -3.1    1.2
N    -0.6    2.3   -4.9
H    -1.3    1.6   -5.0
C    -1.1    3.4   -4.1
H    -3.7   -4.0   -0.2
N    -1.1   -3.3   -4.4
H    -1.5   -2.4   -4.8
N     4.0    3.9    0.2
H     3.3    4.6    0.4
C    -1.3    3.0    4.6
H     4.3    3.6    1.2
H    -0.3    4.2   -4.0
C     0.4   -3.3   -4.8
H     5.4   -2.2   -0.3
C     5.0   -3.1    0.2
P     4.2   -0.1    4.2
H     5.0   -3.1    1.2
H     0.6    3.9    4.6
H    -1.8    3.9    4.2
P     4.1   -0.1   -4.5
H     0.8   -4.2   -4.4
N    -0.4   -4.0    4.7
H    -1.1   -4.4    4.1
H    -4.8    3.6    1.2
H    -4.4    4.3   -0.3
P    -0.5    6.3   -0.1
I     1.5    0.4    6.1
C    -5.7    2.7   -0.5
H    -0.3    2.5   -5.8
H    -1.9    3.9   -4.7
P    -0.5   -6.4   -0.1
I     4.2    3.2    3.7
I     4.0   -3.2   -3.9
H    -1.5   -4.1   -4.7
N    -5.1    3.9    0.2
N    -5.6   -3.2   -0.2
H     4.8    4.3   -0.3
I     6.1    0.4   -2.1
P    -5.0   -0.1    4.2
I     1.6    5.8   -2.5
I     2.2   -5.9    1.7
H    -6.1   -2.3    0.1
H    -1.4    3.0    5.7
H    -5.7   -3.2   -1.3
H     0.3   -4.7    4.8
H    -0.7   -3.7    5.6
P    -5.1   -0.1   -4.5
H     5.4   -4.0   -0.2
H     0.4   -3.3   -5.9
I    -2.4   -0.6   -6.4
I    -2.4   -5.9    2.5
I    -3.1    5.8   -1.9
H    -6.0    3.0   -1.5
H    -6.5    2.3    0.1
I    -5.0    3.2    3.7
I     3.9   -3.2    4.9
I     6.7   -0.5    2.4
I    -5.1   -3.2   -3.9
I    -7.0   -0.5    1.7
I     2.2    6.7    1.7
H    -6.1   -4.0    0.2
I     4.3    3.1   -5.1
I     2.1   -0.5   -7.1
I     1.5   -6.8   -2.5
H    -5.9    4.6    0.4
I    -3.1    0.3    6.8
I    -2.4    6.7    2.5
I    -4.9    3.1   -5.1
I    -3.1   -6.8   -1.9
I    -5.2   -3.2    4.9
I    -7.7    0.4   -2.7
I     1.4    5.8    6.1
H     3.0    3.2    7.4
I     6.1    5.8   -1.9
P     4.1    6.2   -4.4
P    -0.5   -0.1    8.6
P     8.6    0.0   -0.1
H     3.3   -8.0    0.4
P     4.1   -6.3    4.3
P     4.2    6.3    4.3
H     7.4    2.1    4.2
H     3.8   -2.7    7.4
I    -0.6   -3.2    8.1
P     4.1   -6.4   -4.4
I    -0.4    3.0   -8.3
H     7.7    3.1   -3.1
P    -0.5   -0.1   -9.0
I    -2.4   -6.0   -6.3
H    -4.0   -3.1   -7.6
I     6.0    0.3    6.8
P    -5.1    6.2   -4.4
P    -5.0   -6.3    4.3
P    -5.0    6.3    4.3
H     3.1    8.6    0.2
I     8.6   -3.2   -0.8
I     1.4   -6.8    6.1
H    -1.1    8.2    4.1
I     6.7   -0.6   -6.4
I     6.7   -5.9    2.5
I    -7.0   -5.9    1.7
H     0.4    7.9    4.8
H     8.0   -3.2   -3.3
H    -4.3   -1.6    8.1
P    -5.1   -6.4   -4.4
H     7.6   -2.4   -4.8
I     6.1   -6.8   -1.9
H     7.3    3.9    4.2
H     2.6    2.3   -8.7
H    -3.7    8.6   -0.2
H     4.2    2.1    8.1
H    -4.4   -8.3   -0.3
H    -0.3   -8.5   -4.0
H     7.8    1.6   -5.0
I     8.9    3.1    0.6
C     3.4    2.8    8.3
H     7.2    3.9   -4.7
I    -0.5    9.4   -0.8
I    -2.4    6.7   -6.3
H     4.4    3.6   -7.6
I    -0.3   -9.5    0.6
H    -5.4   -2.7    7.4
H     3.4   -2.0   -8.7
I     2.2   -6.1   -7.0
I    -3.1    5.9    6.9
H     0.9    8.5   -4.4
H     4.9   -1.6    8.1
C     7.8    3.0    4.6
H     4.8   -8.3   -0.3
H     8.5   -2.1    3.8
N     4.2   -2.3    8.3
H     2.6    2.4    8.9
N     4.0   -8.7    0.2
H    -8.6   -3.1    3.0
H    -8.2   -2.4    4.5
H    -4.7    3.6   -7.6
P    -9.7    0.0   -0.1
C     8.1    3.4   -4.1
H    -8.3   -2.4   -4.4
H     3.4   -1.9    8.9
H     5.2   -3.1   -7.6
H    -5.0    2.1    8.1
N     8.1   -3.3   -4.4
I    -0.3    3.1    9.3
I    -7.6    0.4    6.1
I    -7.0    6.7    1.7
N    -0.4    8.7    4.7
H    -1.8   -8.7    4.2
I     6.7    6.7    2.5
H     7.6   -4.1   -4.7
I     2.2    6.6   -7.0
H    -1.5    8.5   -4.7
H     0.6   -8.7    4.6
I    -7.6    5.8   -2.5
H    -8.6    2.2    4.6
H    -3.6   -3.9    8.5
I    -9.4    3.1    0.6
H    -5.9   -8.0    0.4
I    -7.0   -0.5   -7.1
H     0.5    9.5    3.0
N    -5.0   -2.3    8.3
H    -9.0    3.1    3.2
H     8.0   -4.4    4.1
H    -1.1    9.4   -3.3
I    -0.6   -3.3   -9.5
H     4.3   -9.0    1.2
H     3.4    4.6   -8.3
H     0.2   -9.6    3.2
N     8.6    2.3   -4.9
N     3.5    9.5   -0.2
H     7.8    3.0    5.7
H    -6.1    3.2    7.4
H    -1.9   -8.8   -4.7
H    -1.4   -9.5   -3.1
H    -9.0    1.8   -4.3
I    -3.1   -6.8    6.9
C    -1.1   -9.2   -4.1
H     3.4    9.4   -1.3
N    -5.2   -8.7    0.2
H     4.0   -4.3   -8.3
H     5.5    8.6   -0.2
C    -4.4   -3.5   -8.5
C    -9.0   -2.8    3.9
N     4.1    3.9   -8.5
H     3.2   -9.6   -1.5
I    -9.7   -3.2   -0.8
C     3.4    2.8   -9.3
H    -8.3   -4.2   -4.4
H     9.3    3.1    3.2
H    -4.8   -9.0    1.2
C    -4.2    9.5    0.2
C     4.8   -3.5   -8.5
N    -1.0    9.4   -4.4
N     4.2   -2.4   -9.3
H     9.3    1.8   -4.3
N    -9.1    3.1    4.2
H    -4.1    9.5    1.2
N     0.1   -9.6    4.2
H    -8.6    3.9    4.6
C    -5.7    2.8    8.3
C     9.3   -2.8    3.9
H    -4.3    4.4    8.5
C     0.4    9.3   -4.8
I    -7.6   -6.8   -2.5
C     3.5   -9.9   -0.5
C    -8.8   -3.3   -4.8
H     4.2    2.0   -9.5
H    -4.3   -1.7   -9.5
H    -6.1    8.6    0.2
H    -0.7    8.9    5.6
H    -3.6   -3.9   -9.1
H     8.9    4.2   -4.0
H     9.7   -3.1    3.0
C     0.2    9.8    3.9
H    -5.7   -2.0   -8.7
N     9.2    3.1    4.2
C    -4.4   -3.5    9.1
H    -5.1   -4.3   -8.3
N    -5.1    3.9   -8.5
H     2.6  -10.3    0.1
N     4.1    4.0    9.1
N     8.8   -4.0    4.7
H    -9.8   -2.1    3.8
P     8.7    6.3   -0.1
H     4.8    4.4    8.5
C     5.0    9.5    0.2
C    -1.3   -9.6    4.6
H     3.0   10.3    0.1
I     2.1   -0.5   10.5
H    -5.7   -1.9    8.9
P     8.7   -6.4   -0.1
H     8.4   -3.7    5.6
H     4.8   -1.7   -9.5
P    -0.5    6.2   -8.8
P    -0.4    6.3    8.8
N    -5.0   -2.4   -9.3
C     4.8   -3.5    9.1
H     5.0    9.5    1.2
P    -0.5   -6.4    8.8
H     5.6   -3.9    8.5
H    -5.0    2.0   -9.5
I     6.1    5.9    6.9
H     8.9    2.5   -5.8
I     4.0    9.4   -3.9
P    -0.5   -6.4   -8.8
H     3.4    4.7    9.3
H     4.0   -4.2    9.3
H    -4.3    4.3   -9.1
I     6.7   -6.0   -6.3
I    10.6    0.4   -2.7
H     9.7    2.2    4.6
N    -5.6    9.5   -0.2
I     4.2   -9.5    3.7
H     0.4    9.3   -5.9
H    -3.7   10.4   -0.3
H    -8.8   -3.3   -5.9
H    -9.4    4.2   -4.0
H    -8.8   -4.7    4.8
H    -6.5    2.3   -8.7
H     3.0    3.2  -10.2
H    -5.7    9.4   -1.3
N    -5.1    4.0    9.1
N    -9.7    2.3   -4.9
H    -5.8    4.6   -8.3
H     4.8    4.3   -9.1
C     9.5   -3.3   -4.8
H    -4.0   -3.1   10.0
H     3.8   -2.7  -10.2
H     0.9   10.2   -4.4
H    10.0   -2.4   -4.4
I    -3.1    0.2  -10.8
C    -5.7    2.8   -9.3
H     1.0   10.2    4.5
H    -1.4   -9.6    5.7
H   -10.3   -3.2   -3.3
H    -0.6   10.6    3.8
H    -6.5    2.4    8.9
N    -9.5   -4.0    4.7
I    -5.0   -9.5    3.7
I     3.9    9.4    4.9
H    -9.4    2.5   -5.8
H    -1.5   10.2   -4.8
I     6.7    6.7   -6.3
H    10.1   -2.4    4.5
I    -5.1    9.4   -3.9
H     0.6  -10.4    4.6
I     6.1   -6.8    6.9
H    -5.1   -4.2    9.3
H     5.6   -3.9   -9.1
H    -6.0   -9.6   -1.5
I    -7.7    5.8    6.1
H     9.7    3.9    4.6
I    11.3   -0.5    1.7
H    -1.8  -10.5    4.2
C    -5.7   -9.9   -0.5
H   -10.6    3.1   -3.1
N    -0.6  -10.4   -4.9
P    -9.6    6.3   -0.1
I    -2.4   -0.5   11.2
H     4.4    3.6   10.0
H     4.3  -10.7   -0.6
P    -9.6   -6.4   -0.1
C   -10.2    3.4   -4.1
N   -10.2   -3.3   -4.4
I     1.5    0.3  -11.5
H    -4.7    3.6   10.0
I    -7.0   -6.1   -7.0
H     9.5   -4.7    4.8
H    -0.3  -10.1   -5.8
I     4.3   -9.6   -5.1
H     0.2  -10.8   -4.3
H     5.2   -3.1   10.0
H    10.0   -4.2   -4.4
H     9.5   -3.3   -5.9
H   -10.5    1.6   -5.0
H     5.4   10.4   -0.3
H    -4.9  -10.7   -0.6
H    -5.4   -2.7  -10.2
I    -5.2    9.4    4.9
I   -11.6   -0.5    2.4
C   -10.5    3.0    4.6
I    -7.0    6.6   -7.0
I    -4.9   -9.6   -5.1
H    -5.8    4.7    9.3
H   -10.9    2.1    4.2
H   -10.3   -4.4    4.1
I    -7.7   -6.8    6.1
H   -10.7   -2.4   -4.8
H    -9.9   -3.7    5.6
H    -6.1   10.3    0.1
H    11.8    2.3    0.1
H     3.4   -8.0   -8.3
H    -0.3    2.6   11.8
H     7.3   -8.7    4.2
H     0.4   -3.3   11.7
H     8.0    8.2    4.1
H    -6.5  -10.3    0.1
I     8.6   -3.2    8.1
H    -1.4  -11.1   -5.0
P     8.7   -0.1    8.6
H     7.2   -8.8   -4.7
I    10.7    0.4    6.1
H    -6.1    3.2  -10.2
H    -1.4    3.0  -11.9
H     3.0   -9.4    7.4
I   -12.2    0.4   -2.1
I     2.2   -6.0   10.6
H   -10.5    3.0    5.7
I     6.0    0.2  -10.8
H     7.6    8.5   -4.7
H   -11.0    3.9    4.2
H   -10.7   -4.1   -4.7
H    12.2   -2.3    0.1
I    10.7    5.8   -2.5
I    -0.6    9.4    8.1
H     4.0    8.4   -8.3
I     2.2   12.2    1.7
P     8.7   -0.1   -9.0
I     8.8    3.0   -8.3
I    -3.1    5.8  -10.7
H    -0.7   -3.8  -12.0
H    -4.3   -8.2    8.5
H   -11.1    3.9   -4.7
I     1.5  -12.3   -2.7
H    -8.3    8.5   -4.4
H     7.7   -9.5   -3.1
I    -2.4   12.2    2.4
P    -0.5  -12.6   -0.1
P    -0.5   12.6   -0.1
H     4.4   -9.1   -7.6
I     2.2    6.6   10.6
