         400
 sphere cut out from bulk 
P    -0.7   -0.9    1.7
H     0.1    1.3   -1.7
I    -2.1    0.9   -0.6
I     0.9   -2.6   -0.6
H     1.8    1.2   -1.8
I     1.7    1.3    1.8
N     1.0    1.7   -2.1
H     1.1    2.7   -1.7
C     1.0    1.8   -3.6
H     0.8    0.8   -4.0
H    -1.9    4.0    0.3
H     0.1    2.4   -3.8
H    -2.4   -3.5   -1.7
I    -2.2    0.7    4.0
I    -3.1   -3.1    1.6
H     4.0   -1.4    1.9
H    -1.2   -2.7   -3.6
H    -4.6    0.3    1.3
I     0.9   -2.6    3.9
H    -2.5    3.2    2.5
H     4.7   -1.2    0.4
H     1.9    2.3   -3.9
H     1.6    1.4    4.4
H     1.0   -4.9    0.5
H     4.7    0.9    1.6
I     0.9    5.0   -0.6
N     4.9   -1.2    1.4
N    -2.7    4.4    0.8
C    -2.8   -3.7   -2.7
I     4.8   -1.0   -2.1
N    -1.7   -3.6   -3.6
P    -4.3    1.6   -2.9
P     3.0   -3.5   -2.8
H    -3.6   -2.9   -2.9
H    -3.6    4.1    0.5
C    -2.5    4.3    2.3
P     3.0    4.3    1.7
I     1.4   -1.9   -5.1
H    -1.5    4.7    2.5
H    -1.0   -4.4   -3.4
I    -2.6   -0.0   -5.0
C     5.4    0.1    1.8
C    -5.5    0.1    1.8
H    -5.3   -1.9    1.6
N     1.9    1.6    5.4
N     0.9   -5.9    0.8
H    -5.3    0.1    2.9
I     5.1    3.3   -0.5
H    -2.7    5.5    0.5
I    -2.6    4.3   -3.4
H    -1.8   -2.9    5.1
H     5.6   -1.9    1.6
H     0.3   -5.5    2.8
H     2.6    0.8    5.6
H     0.0   -6.3    0.5
H    -2.1   -3.8   -4.6
N    -6.0   -1.2    1.4
H     5.6    0.1    2.9
H    -3.3   -4.7   -2.7
H     0.3    0.5    6.3
H    -6.2   -1.2    0.4
H     2.4    2.5    5.4
H     6.3    0.3    1.3
H     2.1   -5.6    2.5
H    -3.3    4.8    2.8
I    -6.1   -1.0   -2.1
H    -6.3    0.9    1.6
C     1.1   -6.0    2.3
H     0.1    2.3    6.1
H     1.7   -6.4    0.3
C     0.8    1.5    6.4
I     1.0    5.2    4.0
I    -5.8    3.3   -0.5
H    -3.6   -2.7    5.2
C    -2.7   -3.3    5.5
I     1.0   -6.0   -3.4
I     4.5   -5.3   -0.6
I     5.0    3.3    4.0
H    -2.8   -4.3    5.1
I     4.6    2.5   -5.1
H    -6.9   -1.4    1.9
I     4.7   -0.8    5.6
I    -2.2   -7.0   -0.5
P     6.6    1.6   -2.9
H     4.0    5.7   -2.7
P    -0.6    6.8   -2.8
P    -0.6   -0.9   -7.4
H     4.0   -0.4   -6.3
H     1.1   -7.1    2.5
P    -4.3   -6.0    1.7
H     1.2    1.7    7.4
P     3.0   -3.5    6.2
P    -4.3    1.7    6.2
I     0.6    2.0   -7.4
I     1.4    5.8   -5.1
I    -5.9    3.3    4.0
I     4.6   -5.1    4.0
H    -2.5   -2.4    7.4
N    -2.6   -3.4    7.0
H    -1.6    5.2   -6.1
I    -2.7    7.8   -0.6
H     2.0   -5.1   -6.1
H    -1.7    3.2   -7.5
H    -4.6    6.0   -3.4
H     4.8   -1.9   -6.5
H    -5.2   -0.4   -6.5
I    -2.2   -7.0    4.0
I    -6.4   -5.3   -0.6
C     4.8   -0.9   -6.8
H     7.3    4.1    0.5
H     7.4   -2.9   -2.9
C     4.4    6.6   -2.7
I    -6.3   -0.8    5.6
I    -1.9   -3.9   -7.2
I     5.1   -4.5   -5.1
I    -2.5    4.2    6.9
H    -1.8   -4.0    7.3
H     4.8    6.8   -1.7
I     4.2    7.2    1.6
I    -6.4    2.5   -5.1
I     7.9   -3.1    1.6
H     1.0   -4.3   -7.4
H    -3.2    3.7   -7.1
H     5.8   -0.4   -6.5
H     2.0    8.4    1.6
H     3.7    7.4   -2.9
I     1.4   -1.8    8.5
I    -2.8   -0.1    8.4
I     8.8    0.9   -0.6
N    -2.4    3.9   -7.6
I    -5.9   -4.5   -5.1
P     3.0    4.2   -7.4
H    -3.5   -3.8    7.4
C     1.8   -5.1   -7.2
H     4.5    6.0    5.1
I    -6.3   -5.1    4.0
P    -7.9   -3.5   -2.8
I    -2.7    7.7    3.9
C    -1.8    5.2   -7.2
H     0.4    8.9    1.9
P     6.6   -6.0    1.7
H     4.7   -7.6   -1.7
P    -7.9    4.3    1.7
H    -6.1   -1.9   -6.5
C    -6.1   -0.9   -6.8
P    -0.7   -8.7   -2.9
H     1.1    9.1    0.4
P    -0.7    6.8    6.2
C     8.1   -3.7   -2.7
H    -6.1    6.8   -1.7
P     6.7    1.7    6.2
I     1.2   -6.1    6.9
N     1.2    9.1    1.4
N    -5.3    6.7   -3.6
H     7.6   -4.7   -2.7
H     8.5   -3.5   -1.7
H     6.3    6.0   -3.4
H    -9.1    1.2   -1.8
H     8.4    3.2    2.5
H    -6.9   -0.4   -6.3
H    -6.9    5.7   -2.7
N     8.2    4.4    0.8
H     3.7   -1.1   -8.6
H     7.4   -2.7    5.2
H     7.6    4.8    2.8
N     5.6    6.7   -3.6
I    -9.2    1.3    1.8
N     4.6   -0.7   -8.3
H    -0.9    5.4   -7.8
H     3.7   -7.9   -3.8
I     8.7    0.7    4.0
H     2.7   -4.9   -7.8
H     5.2    6.6   -4.6
I     1.5   -9.5   -0.6
C    -6.5    6.6   -2.7
I     1.2    9.4   -2.1
I    -2.7   -7.8   -5.1
I     8.3   -0.0   -5.0
H     4.6    0.3   -8.6
C     8.4    4.3    2.3
H    -4.9    7.6   -3.6
H     0.4   -6.6   -7.1
H     9.0    4.0    0.3
H    -5.7    6.6   -4.6
H    -2.6    3.9   -8.7
H     3.8   -9.0   -1.7
I     1.5   -1.9   -9.6
H    -2.6    6.0   -7.4
H     8.3    5.5    0.5
H    -2.6   -9.4    1.6
H    -6.2   -7.6   -1.7
H     3.7    7.6    5.2
I     4.5    2.6    8.5
I    -6.7    7.2    1.6
N     4.7   -8.6   -2.1
I     8.3    4.3   -3.4
C     4.6    7.0    5.5
N     1.2   -6.4   -7.6
H    -8.3    0.8    5.6
I    -2.8   -0.2   -9.7
H    -9.0    2.3   -3.9
I    -2.2    8.5   -5.1
H    -1.0  -10.0    1.3
H    -6.5    6.0    5.1
N    -9.9    1.7   -2.1
H     3.7   -1.1    9.5
H    -9.8    2.7   -1.7
C     4.6   -8.5   -3.6
I   -10.0   -2.6   -0.6
H     5.4   -1.2   -8.8
H     6.0    7.6   -3.6
C     8.2   -3.3    5.5
N    -6.3   -0.7   -8.3
H    -8.5    2.5    5.4
P    10.3   -0.9    1.7
H    -9.3    1.4    4.4
P    -4.3    9.4    1.7
H    -5.6   -1.2   -8.8
H    -5.4   -8.1   -3.9
P    -4.3   -6.1   -7.4
H     8.1   -4.3    5.1
I     1.5    6.1    8.5
H     2.0   -7.1   -7.5
H    -5.4    7.5    5.1
N     9.2   -3.6   -3.6
H     5.5   -8.1   -3.9
I     1.4   -9.7    4.0
C    -1.9  -10.2    1.8
H     3.8    6.5    7.4
H    -2.6    4.0    9.4
H     5.5    7.5    5.1
H     4.6    0.3    9.5
H    -6.3    0.3   -8.6
P    -0.6   -8.6    6.2
N    -9.0    1.6    5.4
I     5.3   -9.0    1.8
P    -8.0   -3.5    6.2
H     9.7   -2.7   -3.6
H     8.9   -3.8   -4.6
H     1.1    8.4   -6.5
H    -4.9   -7.8    5.4
C   -10.0    1.8   -3.6
H    -8.8   -5.6    2.5
H    -7.2    7.4   -2.9
C     1.8   10.4    1.8
H     3.7   -8.0    6.1
I    -5.6   -9.0    1.8
H    -1.7  -10.3    2.9
I     5.2   -4.3    8.5
P    -0.7   -0.8   10.7
H     5.3   -1.2    9.3
H     5.5   -9.2   -1.8
H    -5.5   -9.2   -1.8
H     1.1   -6.4   -8.7
H     9.4    4.7    2.5
N    -6.3   -8.6   -2.1
H     9.1   -2.9    5.1
H   -10.1    0.8   -4.0
N     4.6   -0.7    9.8
I     0.6    2.1   10.7
N     4.7    6.9    7.0
H     1.2    1.6  -10.7
C    -6.3    7.0    5.5
I    -6.4    2.6    8.5
I    -9.5   -1.9   -5.1
H    -5.6   -1.2    9.3
I     4.6    2.6   -9.6
H     2.0   10.4    2.9
H   -10.8    1.3   -1.7
H     2.7   10.6    1.3
I     5.4    6.4   -7.2
I   -10.0   -2.6    3.9
I    -5.8   -4.3    8.5
H   -10.0   -4.9    0.5
H     7.4   -3.8    7.4
H     7.7    3.7   -7.1
H     5.5    6.4    7.3
I     1.0    9.5    5.6
H    -5.5    6.4    7.3
I    -5.6    6.4   -7.2
C    -6.3   -8.5   -3.6
I     8.7   -7.0   -0.5
H     5.2   -8.9    4.4
H    -9.2   -6.4    0.3
H    -1.7    3.3   10.6
H     4.5   -9.5   -4.0
I   -10.0    5.0   -0.6
H     6.0   -7.8    5.4
H    -7.2   -1.1   -8.6
H    11.1    1.3   -1.7
H    -2.5   -2.5  -10.7
I     8.2    7.8   -0.6
N     8.3   -3.4    7.0
H    -7.2   -7.9   -3.8
H     9.9   -4.4   -3.4
H     1.0   11.2    1.6
H     1.0   -6.3    9.4
H     8.4   -2.4    7.4
I     1.6    6.0   -9.6
N    -2.4    4.0   10.5
H    -6.3    0.3    9.5
H    -5.7   -8.9    4.4
H     1.0   -4.2   10.7
I     1.0  -10.3   -5.0
P    -7.9    4.2   -7.4
H    -7.1   -9.0   -1.7
N   -10.0   -5.9    0.8
N    -5.4   -8.7    5.4
P     6.6    9.4    1.7
P     6.6   -6.1   -7.4
N    -6.3    6.9    7.0
I    -2.0   -3.8   10.9
H    -1.8   -4.0  -10.8
N     5.5   -8.7    5.4
C     1.2    9.4   -6.8
H     2.7   -4.8   10.3
H    -7.2    7.6    5.2
C    -9.8   -6.0    2.3
I     8.1   -0.1    8.4
N    -6.3   -0.7    9.8
I     8.5    4.2    6.9
I    -2.5  -11.3   -2.1
H    -1.0    5.5   10.3
H   -10.8    2.4   -3.8
C     4.4   -8.8    6.4
P   -11.6   -0.9    1.7
I    -2.8   -7.7    8.5
H    -1.8   11.5   -1.8
P     3.0  -11.3    1.7
I     5.2   -4.3   -9.6
H     0.4   10.0   -6.3
H     0.3    0.5  -11.8
H    -2.6  -11.5    0.4
H     4.8    7.9    7.4
I    -6.3    2.6   -9.6
C     0.8    1.4  -11.7
I     8.7   -7.0    4.0
N    -2.4  -11.5    1.4
I    -9.9    5.2    4.0
I    -1.9   11.6    1.8
H    11.0    2.4   -3.8
I     8.2    7.7    3.9
I     4.2   -8.3   -7.4
H    -3.5   -3.8  -10.7
P     3.0    4.3   10.7
N    -2.6   -3.5  -11.1
H    -4.7   -9.5    5.6
H    -8.9   -5.1   -6.1
I    -5.7   -4.3   -9.6
H     2.1    9.9   -6.5
H    -7.3   -1.1    9.5
H    -3.3    3.8   11.0
I    -9.9   -6.0   -3.4
C   -10.1    1.5    6.4
N     8.5    3.9   -7.6
C     1.8   -5.0   10.9
I    11.8   -2.6   -0.6
H    -2.8   11.1   -4.0
H     0.1    2.2  -12.0
H    -6.5   -9.5   -4.0
H    -7.1    6.5    7.4
I    -2.4    4.2  -11.2
I     9.0   -3.9   -7.2
I    -9.5    5.8   -5.1
I    -2.2    8.5    8.5
H   -10.6   -5.5    2.8
C    -1.9    5.3   10.9
N    12.0    1.7   -2.1
N     1.2   -6.3   10.5
H     3.9   -9.8    6.3
H    -3.5   11.7   -1.7
H     9.3    5.2   -6.1
C     4.8   -0.8   11.3
H     9.1   -4.0    7.3
H     9.3    3.2   -7.5
H    -8.2   -4.9   -7.8
H    -9.7    1.7    7.4
I     5.2   11.2   -0.6
H    -9.8   -7.1    2.5
H    -3.3  -11.8    1.9
H     4.8   -8.7    7.4
H   -10.6    0.5    6.3
H    -8.9    8.4    1.6
I     4.7   10.3   -5.0
I     8.2   -7.8   -5.1
H    -7.2   -8.0    6.1
H    11.8    0.8   -4.0
H    -6.2    7.9    7.4
H    12.0    2.7   -1.7
H     3.9   -0.3   11.8
H    -1.7  -12.3    1.6
N    -2.6   12.1   -2.1
H    -1.0   11.2    5.6
C    11.9    1.8   -3.6
H     0.1    9.2   -8.6
H    -2.6    6.1   10.7
I    -5.7   11.2   -0.6
H   -10.9   -6.3    0.5
H    10.9   -6.3    0.5
P     3.0   11.9   -2.9
