         400
 sphere cut out from bulk 
H     0.7    0.6   -0.4
C     0.3    1.6   -0.1
H     0.3    1.7    1.0
H    -1.7    1.1   -0.3
N    -1.0    1.8   -0.7
H     0.6   -2.1    0.7
H    -1.1   -2.0    0.8
H     1.0    2.4   -0.5
H    -1.0    1.8   -1.7
N    -0.3   -2.6    1.0
H    -1.4    2.8   -0.4
I     2.9   -1.5   -0.1
I    -3.2   -0.7    0.4
H    -0.2   -2.8    2.0
H    -0.5   -3.6   -0.9
C    -0.4   -3.9    0.2
I     1.5    0.7    3.6
I    -0.7    1.6   -4.1
H     0.4   -4.5    0.4
H    -1.3   -4.4    0.5
I     3.8    3.0    0.3
H     2.0    2.6   -3.6
P     4.4    0.3    2.1
I    -2.0   -3.0   -3.4
H    -0.8    4.0    3.0
H     0.8    2.9    4.4
I    -2.0    4.9    0.4
H     3.9    3.0   -2.2
I    -0.0   -3.7    4.2
H    -1.5    3.3    4.5
C     2.8    3.3   -3.9
C    -0.9    4.0    4.1
P    -4.9   -2.6   -2.0
H     4.4    2.0   -3.5
N     4.1    2.9   -3.2
N     0.5    3.8    4.7
P    -5.8    0.3    2.1
P    -2.2   -0.7   -5.7
P     5.2   -2.6   -2.0
H     2.5    4.3   -3.7
H    -1.1   -5.3   -3.2
I    -4.3    2.6    3.8
P     1.8   -1.5    5.9
H     1.2    4.5    4.4
H    -2.9   -4.6    3.5
I    -5.0   -0.2   -4.1
I     5.1   -0.2   -4.1
H     3.0    3.2   -5.0
I    -4.2   -5.2   -0.2
I     4.7   -1.8    4.5
H    -1.2    5.0    4.4
I     3.5   -4.7   -3.5
H    -0.2   -6.5   -2.4
H     0.4    3.9    5.7
H     4.8    3.6   -3.5
I     7.0   -0.7    0.4
H    -5.8    2.0   -3.5
I    -6.4    3.0    0.3
N    -0.8   -6.3   -3.3
I     0.2    6.1   -3.6
I     1.2   -7.1   -0.4
H    -6.2    3.0   -2.2
I    -5.5   -1.8    4.5
H    -5.4    3.6   -3.5
H     0.9   -5.8   -4.5
C    -3.8   -5.1    3.9
H    -4.7   -4.4    3.7
I    -7.3   -1.5   -0.1
I     5.9    2.6    3.8
N    -6.1    2.9   -3.2
P    -1.3    4.4   -6.0
P    -4.9    5.3    1.9
H    -4.0   -6.1    2.1
H     3.7    0.5   -6.6
I     0.2   -1.6   -7.5
P     5.2    5.3    1.9
I    -0.8   -0.5    7.6
I    -3.8    5.3   -4.1
I     2.7    6.3    3.6
P    -2.3    7.2   -1.9
H    -1.6   -6.9   -3.3
C    -0.0   -6.4   -4.5
I     6.0   -5.2   -0.2
H     5.5   -4.4    3.7
H    -4.0   -2.4    6.5
H    -2.6   -2.0    7.3
N    -4.0   -6.3    3.1
H    -4.5    2.6    6.2
H    -3.8   -5.3    4.9
H    -0.7   -6.2   -5.3
H     2.6   -3.4   -7.1
H    -3.1   -6.9    3.2
H     0.6    7.6    3.2
I    -2.9    2.1   -7.5
H     1.8    0.1   -8.2
H    -3.0    1.3    7.7
N    -3.5   -2.7    7.3
H     8.5    1.1   -0.3
H    -1.1    7.8    3.4
I     1.5    3.9   -7.5
H    -2.6    3.1    7.6
H     2.1    7.7   -3.3
C     3.8    0.4   -7.7
H     3.6   -4.7   -6.3
H     2.2    1.7   -8.2
P     4.2   -7.4   -1.9
H    -3.1   -3.7    7.2
H    -0.3    8.5    2.1
P     0.7   -6.4    6.0
H     0.3   -7.5   -4.6
I     3.2    0.3    8.2
N    -0.2    8.3    3.1
H     5.7    2.6    6.2
N     2.6    0.7   -8.4
H     6.1   -6.1    2.1
I    -3.4    7.1    4.1
I    -6.7   -4.7   -3.5
C     2.9   -4.4   -7.1
C    -3.3    2.4    8.0
I     4.9    7.5   -0.4
C    -7.4    3.3   -3.9
I     2.4   -4.2    7.6
H    -4.8   -6.8    3.4
N    -4.6    2.7    7.2
C     6.4   -5.1    3.9
H     4.1   -0.6   -8.0
H     2.0   -5.1   -7.2
I     0.1    4.0    8.1
I     3.1   -7.5    4.1
I    -1.0   -8.3    3.6
H     3.5    8.1   -2.4
I    -5.2    7.5   -0.4
H     4.8    2.0    7.5
I    -3.8   -2.4   -8.0
H     6.1   -2.4    6.5
H     8.8    2.8   -0.4
H     5.3   -6.8    3.4
H    -8.1    2.6   -3.6
H     7.3   -4.6    3.5
I     6.4    5.3   -4.1
H     9.1   -2.0    0.8
H    -6.5    0.5   -6.6
H    -7.2    3.2   -5.0
I     8.2   -3.0   -3.4
H     4.6    1.1   -8.0
I    -0.5    9.3   -0.2
N     9.1    1.8   -0.7
H     4.0    7.1   -4.6
N     6.2   -6.3    3.1
N     2.9    8.3   -3.3
I    -8.7    0.7    3.6
H    -5.3    2.0    7.5
H    -9.2    2.4   -0.5
H    -7.7    4.3   -3.7
H     9.2    1.8   -1.7
H    -9.5    0.6   -0.4
I     8.1    4.9    0.4
N     5.6    2.7    7.2
P     1.5   -9.2    1.9
H     6.4   -5.3    4.9
H    -4.9    3.7    7.5
P    -6.0   -7.4   -1.9
P     8.0   -0.7   -5.7
I    -2.2   -6.0    7.5
I    -3.5   -8.5   -3.6
H    -9.6   -2.1    0.7
H    -5.6    1.1   -8.0
H     5.3    3.7    7.5
H    -4.6   -1.5    8.6
H     8.8   -4.4    0.5
H     2.7    0.7   -9.5
C    -4.2   -2.5    8.5
C    -9.8    1.6   -0.1
H    -3.5    2.5    9.0
C    -6.3    0.4   -7.7
C     3.7    8.1   -4.5
H    -6.1   -0.6   -8.0
P     0.8    1.3   10.0
H    -9.9    1.7    1.0
H     2.6    9.3   -3.2
I    -0.6   -6.2   -8.1
N     3.7   -4.6   -8.4
C    -0.1    9.5    3.9
N     9.9   -2.6    1.0
N     6.7   -2.7    7.3
H    -6.6   -4.7   -6.3
H     8.6    3.3    4.5
H     4.5   -4.0   -8.4
H     9.7   -3.6   -0.9
H     5.1   -3.2    8.5
H     7.0   -6.9    3.2
H     5.6   -1.5    8.6
P    -1.3   -3.5   -9.7
H    -5.1   -3.2    8.5
P    -8.4   -1.5    5.9
H    -3.6   -2.8    9.4
H     3.1    8.4   -5.3
H    -2.6    1.9   -9.9
I    -7.5    6.3    3.6
H    -6.1    7.1   -4.6
H    -0.0    9.2    4.9
C     9.7   -3.9    0.2
H     2.4   10.2    0.5
I     2.7   -9.3   -4.1
I     9.5    1.6   -4.1
I     6.4   -2.4   -8.0
H    10.0   -2.8    2.0
H     7.1    1.3    7.7
I     4.4   -9.6    0.4
H    10.4    1.7    1.0
C    10.5    1.6   -0.1
H     9.4    4.0    3.0
I     6.8    7.1    4.1
H     0.8   10.0    3.5
H     3.1   -4.4   -9.2
I     7.3    2.1   -7.5
I    -1.5    6.7   -8.2
C     5.9   -2.5    8.5
H     7.5   -2.0    7.3
I    -6.9    0.3    8.2
H    -9.7   -4.5    0.4
H    -9.3    2.9    4.4
C     6.8    2.4    8.0
H    -6.7    8.1   -2.4
H     7.1   -3.7    7.2
H    -1.0   10.1    3.7
N   -10.5   -2.6    1.0
P     7.9    7.2   -1.9
H    -5.6   -4.0   -8.4
H    10.8    0.6   -0.4
I    -2.9    9.8   -3.5
H     4.6    8.8   -4.5
H    -7.6   -3.4   -7.1
H     4.0   -5.6   -8.4
H     4.2   10.1    0.4
H     9.0   -5.3   -3.2
H   -10.4   -2.8    2.0
C     9.3    4.0    4.1
H    -9.0    4.5    4.4
H    -1.2  -10.3   -3.7
H    10.8   -2.1    0.7
I     4.5    5.9    8.2
P     4.4    8.2    6.0
C    -7.3   -4.4   -7.1
I    -7.1   -7.5    4.1
C     3.3   10.7    0.2
H     9.0    5.0    4.4
H     7.6    3.1    7.6
I    -5.7   -9.6    0.4
H    -2.5  -10.0    4.4
C   -10.6   -3.9    0.2
H   -10.7   -3.6   -0.9
C    -6.5    8.1   -4.5
H    -5.6    8.8   -4.5
N   -11.2    1.8   -0.7
I     6.7   -8.5   -3.6
N    -7.6    0.7   -8.4
H     2.4   -4.2   10.3
N    -2.5    1.9  -11.0
N    -9.7    3.8    4.7
H   -11.1    1.8   -1.7
H    11.2    2.4   -0.5
I    -9.0   -7.1   -0.4
H     8.5   -6.9   -3.3
H     3.2   11.0   -0.9
I     1.5    8.6    7.5
H    -2.2    0.9  -11.2
H     6.7    2.5    9.0
H   -11.3   -2.0    0.8
N    -7.2    8.3   -3.3
H    -7.9    1.7   -8.2
P     8.8    4.4   -6.0
H    10.6   -4.5    0.4
I    -5.7    5.9    8.2
H     1.1  -10.9   -3.5
N    -6.5   -4.6   -8.4
I     0.0  -11.6    0.3
I    10.1   -3.7    4.2
H    -4.9   -9.5    4.4
P     1.4    6.3   -9.7
I    -7.8   -4.2    7.6
H    -8.1    7.7   -3.3
I   -10.2   -3.7    4.2
H    -8.4    0.1   -8.2
P    -5.8    8.2    6.0
I   -10.8    1.6   -4.1
P     1.7    6.3    9.7
H    -1.8    2.6  -11.3
N     9.4   -6.3   -3.3
H    -6.0   10.1    0.4
H     5.3   -9.5    4.4
H     0.2  -11.6   -2.2
H     6.6   -2.8    9.4
H    -6.1   -5.6   -8.4
H    -9.3   -5.8   -4.5
I    -2.0    1.7   11.5
H   -11.5    2.8   -0.4
H    -4.5  -10.6    3.0
H    -9.7    3.9    5.7
H   -11.9    1.1   -0.3
I     1.7   -3.8  -11.2
I     0.8   -8.7    8.2
H    -8.1   -5.1   -7.2
C    -0.9  -11.3   -3.9
H    -2.9    9.9   -6.3
H   -11.0    4.0    3.0
N     0.3  -11.6   -3.2
H    -7.5    0.7   -9.5
I     3.1    8.4   -8.1
I    -8.7    3.9   -7.5
I     9.4   -0.5    7.6
H    10.0   -6.5   -2.4
H    -4.5    1.3  -11.2
N    -3.2  -10.8    4.7
C    -4.6  -10.5    4.1
I    -9.9    6.1   -3.6
H    11.0    2.9    4.4
I     1.7   11.6   -3.4
P    -1.2   12.0   -2.0
I    -1.5   -1.3  -12.1
I    11.7    0.7    3.6
H    -7.1    8.4   -5.3
I     3.7   10.9    4.2
N    10.7    3.8    4.7
I     2.9    0.7  -11.9
H   -11.5   -4.4    0.5
I     1.0   -1.0   12.3
I     2.4    3.6   11.6
C    -3.9    2.1  -11.5
H     5.7  -10.6    3.0
H     9.0    7.8    3.4
H     3.5   11.7    2.0
H    -4.2    3.1  -11.2
C     3.0   -4.5   11.2
H    -7.0   -4.4   -9.2
I     7.9   -6.0    7.5
I     4.9   -7.9   -8.2
H    -7.6    9.3   -3.2
C   -11.0    4.0    4.1
H    -0.7  -11.4   -5.0
H     3.9   -3.8   11.2
N     3.4   12.0    1.0
H   -10.4   -6.5   -2.4
H    -2.7  -12.2   -0.5
H    -2.4    9.0   -8.4
H     9.5   -6.2   -5.3
I    -9.9   -1.6   -7.5
I    -5.2   -7.9   -8.2
H    -4.2    5.1   10.7
H     5.6    1.3  -11.2
H    -3.3  -10.7    5.7
I    10.4    6.1   -3.6
I    -7.5   -9.3   -4.1
C     5.6  -10.5    4.1
H    -1.7  -12.0   -3.6
H     7.6    1.9   -9.9
H    -4.4    9.5   -7.2
H    -9.6    7.6    3.2
H    10.6    3.9    5.7
I     2.2  -11.9    3.8
I     7.2    9.8   -3.5
C    -6.9   10.7    0.2
I    -0.3    4.4  -12.0
P    -8.7   -9.2    1.9
H     3.3   -5.5   11.1
P    -5.0  -10.2   -6.0
I     9.1   -8.3    3.6
H    -7.8   10.2    0.5
H    -2.9  -11.7    4.4
H     5.1  -11.8   -0.4
C    10.2   -6.4   -4.5
H    -5.1  -11.8   -0.4
C   -10.2   -6.4   -4.5
P     5.1  -10.2   -6.0
H     2.6   12.6    0.8
C    -3.5   10.1   -7.1
H   -11.3   -5.3   -3.2
P    -9.5   -6.4    6.0
P    -2.0   -8.2    9.7
I    10.4   -1.6   -7.5
H   -11.7    3.3    4.5
P    -2.3   -8.3   -9.7
H    12.2    2.6   -3.6
H    11.3    4.5    4.4
I    -3.6   -2.8   12.1
I   -12.2   -3.0   -3.4
H    -6.9   11.0   -0.9
H     1.9   -3.3   12.5
N   -11.0   -6.3   -3.3
H     0.7  -12.6   -3.5
H     6.0    3.1  -11.2
I    -3.0   -5.6  -11.4
I    13.0   -1.5   -0.1
H     0.6   10.9    7.2
H     4.9  -11.3    4.5
H    -2.8    3.9   12.2
H     9.8    8.5    2.1
H     4.3   12.4    0.7
I   -12.2    4.9    0.4
I     3.8    5.1  -11.5
