         400
 sphere cut out from bulk 
P    -0.4   -0.0    0.1
I     2.2    0.4   -1.8
I     1.6   -0.5    2.6
I    -0.3   -3.2   -0.4
I    -0.5    3.1    0.7
I    -2.4    0.4   -2.5
I    -2.9   -0.4    2.1
H     3.1    2.2   -0.2
H     2.2   -3.3   -0.3
H    -3.6    2.2    0.1
H     0.6    3.1   -3.0
H     4.0   -1.8    0.4
H    -1.3   -3.2    3.0
H    -1.1    3.1    3.2
H    -1.6   -2.3   -3.7
H    -0.2   -3.4   -3.3
N     3.6    3.1    0.1
H     0.6   -2.3    4.1
H     3.5    3.1    1.2
H    -1.4    2.3   -4.0
H     0.9    2.3    4.2
N     3.2   -3.6   -0.4
H     3.1    3.9   -0.3
H     3.5   -3.4   -1.4
C     4.1   -2.9    0.5
H     0.9    2.2   -4.5
H    -4.0   -3.2    0.3
C     0.5    3.1   -4.1
C    -4.1    3.1   -0.3
H     3.8   -3.2    1.5
C    -1.1   -3.2   -4.0
H    -4.1    3.1   -1.4
H    -1.8   -2.3    4.5
C    -1.3   -3.2    4.1
N    -1.0    3.1    4.2
H    -1.5    2.3    4.6
H    -5.1   -1.8    0.4
H    -3.7    4.0    0.1
N    -1.0    3.1   -4.4
N     0.2   -3.1    4.5
C     0.4    3.2    4.6
H     3.3   -4.6   -0.3
H     0.6   -4.0    4.1
C    -5.0   -2.9    0.5
H    -1.4    3.9   -4.0
H     0.9    4.1    4.2
C     5.0    3.1   -0.3
H    -1.8   -4.1   -3.9
H     5.5    2.2    0.1
H     0.0   -2.3   -5.5
P     4.1   -0.1   -4.4
H     5.0    3.1   -1.4
P     4.1   -0.0    4.4
H     5.2   -3.2    0.3
H     0.9    4.0   -4.5
N    -0.6   -3.2   -5.4
H    -1.5    4.0    4.6
H    -1.7   -4.1    4.5
P    -0.5    6.3    0.1
P    -0.5   -6.3    0.1
H    -5.3   -3.2    1.5
N    -5.6    3.1    0.1
I     4.0    3.2    3.8
H    -1.1    3.1   -5.5
H     0.2   -3.1    5.6
H    -6.0    2.2   -0.2
I     4.2   -3.2   -3.8
I     2.2    5.8   -1.8
I     1.5   -0.5   -6.3
H    -5.6    3.1    1.2
H     0.5    3.2    5.7
I     6.2   -0.4    2.1
I     1.5   -5.8    2.6
P    -5.0   -0.1   -4.4
P    -5.0   -0.0    4.4
H    -5.6   -3.4   -1.4
H     5.5    4.0    0.1
I    -2.3    5.8   -2.5
H    -1.4   -3.0   -6.0
I    -2.5    0.6    6.4
H    -0.1   -4.0   -5.6
N    -5.9   -3.6   -0.4
I    -3.1   -5.9    1.9
I    -4.9   -3.2   -3.8
I     4.1    3.1   -4.8
I    -5.1    3.2    3.8
I    -6.9    0.4   -1.8
H    -6.0    3.9   -0.3
I     6.8    0.4   -2.5
I     2.1    0.5    6.9
I     2.2   -6.8   -1.8
I     4.3   -3.2    5.1
I     1.6    6.8    2.6
H    -5.9   -4.6   -0.3
I    -3.0   -0.6   -6.9
I    -5.0    3.1   -4.8
I    -2.4   -6.8   -2.5
I    -3.0    6.7    1.9
H    -6.9   -3.3   -0.3
I    -4.9   -3.2    5.1
I    -7.5   -0.5    2.6
I    -0.6    3.1   -8.1
I     6.0   -5.9    1.9
H     3.3    8.0   -0.3
H     7.5   -2.3   -3.7
P     4.1   -6.3    4.4
P     8.7   -0.0    0.1
H     3.2   -3.2   -7.5
P     4.1    6.3   -4.4
I    -0.4   -3.1    8.1
P     4.1   -6.3   -4.4
I     1.5   -5.9   -6.3
P     4.2    6.3    4.4
P    -0.4    0.0   -8.8
P    -0.4    0.1    8.8
I    -2.4    5.7    6.3
H    -4.0    3.0    7.3
H     3.7    2.3    7.7
H     7.4   -2.3    4.5
H     7.7    2.3   -4.0
H     7.8   -3.2    3.0
P    -5.0    6.3   -4.4
H     8.0    3.1    3.2
P    -5.0    6.3    4.4
P    -5.0   -6.3    4.4
I    -6.9    5.8   -1.8
H     3.7    3.3   -7.8
H     3.0   -8.7   -0.3
P    -5.0   -6.3   -4.4
H     7.6    2.3    4.6
I     8.7    3.1    0.7
I     6.7    0.6    6.4
H    -3.9    2.2   -8.1
I     6.1   -0.6   -6.9
H     7.4   -4.1   -3.9
I     6.1    6.7    1.9
I     2.2    5.8    6.9
I     6.8    5.8   -2.5
I     1.5    6.7   -6.3
H     3.8    4.0    7.6
H    -4.3   -3.1    7.7
H    -3.7   -8.6    0.1
I     8.8   -3.2   -0.4
C     7.9   -3.2    4.1
H     5.1    3.0    7.3
H     2.8   -2.2    8.7
I    -0.2    9.4   -0.4
N     4.3    3.1    7.9
I    -0.5   -9.5    0.7
H    -1.7    8.5   -3.9
H    -8.2    2.3    4.2
C     8.0   -3.2   -4.0
H     7.7    3.9   -4.0
P    -9.6   -0.0    0.1
H     7.4   -4.1    4.5
H     0.8   -8.6    4.2
I    -3.1   -5.8   -7.0
H     4.8   -3.1    7.7
H    -8.6    3.1   -3.0
H     0.7    8.6    4.1
H     2.3    9.3   -0.3
H    -8.2    2.2   -4.5
N     3.3    9.0   -0.4
H     2.8   -2.3   -8.9
N     8.1    3.1    4.2
I    -2.5   -6.9    6.3
C     3.2   -3.2   -8.5
H    -1.5   -8.7   -4.0
H    -4.0   -2.4   -8.5
H    -8.5   -2.3    4.1
H    -5.5    2.3    7.7
H     7.6    4.0    4.6
H     0.9   -8.6   -4.5
N    -4.8    3.1    7.9
N     8.1    3.1   -4.4
H    -1.7    8.5    4.5
H    -0.2    9.3   -3.3
H     5.2    2.2   -8.1
I    -7.0    0.5    6.9
I    -7.0   -6.8   -1.8
I    -7.6   -0.5   -6.3
H    -5.8    8.0   -0.3
I     6.7   -6.8   -2.5
H    -3.8    4.0   -8.2
H    -1.6   -8.7    4.6
I    -7.6   -5.8    2.6
I    -9.4   -3.2   -0.4
I     2.1   -6.8    6.9
H    -1.2    9.4    3.0
C    -4.5    3.2   -8.3
H     0.5   -9.5   -3.0
H    -5.4    3.3   -7.8
H     2.8   -4.0    8.7
H     3.6    9.3   -1.4
H    -6.0   -3.2   -7.5
I    -0.4   -3.2   -9.5
C     4.7    3.2   -8.3
C    -8.7    3.1   -4.1
H     8.9   -3.4   -3.3
H    -1.2   -9.5    3.2
H    -8.3    4.1    4.2
I    -9.6    3.1    0.7
H    -5.4    4.0    7.6
I    -0.6    3.2    9.6
N     3.5   -9.5    0.1
H     5.4   -8.6    0.1
H    -8.2    4.0   -4.5
H    -3.9    9.4    0.3
I    -3.0    6.8   -7.0
C     3.3   -3.1    9.1
H     8.0    3.1   -5.5
H     3.4   -9.5    1.2
H    -4.0   -2.3    9.1
H     2.8   -4.1   -9.0
C    -1.0    9.4   -4.0
H     5.1   -2.4   -8.5
H     7.7   -3.0   -6.0
H    -8.5   -4.0    4.1
H    -4.0   -4.0   -8.5
H    -0.0    8.6   -5.6
N    -4.4   -3.1    8.7
C    -8.7    3.2    4.6
H     3.9    9.5    1.5
C    -1.2    9.4    4.1
C     0.4   -9.5   -4.1
N     4.7   -3.1    8.7
C    -4.2   -9.5   -0.3
N    -1.1   -9.5    4.2
H    -9.3   -3.4   -3.3
N    -4.5   -3.2   -8.9
I    -7.6    6.8    2.6
H    -4.2   -9.5   -1.4
N     0.2    9.5    4.5
N    -9.0   -3.1    4.5
C     0.3   -9.5    4.6
N     8.5   -3.2   -5.4
N    -1.0   -9.5   -4.4
N     4.7   -3.2   -8.9
H     5.3    4.0   -8.2
H     9.7    3.1   -3.0
C     4.2    9.7    0.5
H    -3.9    2.3    9.6
H    -6.1   -8.7   -0.3
P     8.6   -6.3    0.1
P     8.7    6.3    0.1
H    -4.0   -4.0    9.1
C     4.9   -9.5   -0.3
H     5.2   -2.3    9.1
H     5.1   -4.0   -8.5
N    -5.8    9.0   -0.4
H     5.2    9.4    0.3
N     9.3   -3.1    4.5
P    -0.4    6.2    8.8
P    -0.4    6.2   -8.9
H    -8.6    3.2    5.7
C    -4.4    3.2    9.3
H     3.6    2.2   -9.9
H     3.0  -10.4   -0.2
H     5.0   -9.5   -1.4
H     9.8   -2.3    4.1
I     6.7    5.7    6.3
C    -5.9   -3.2   -8.5
H    -9.1   -2.3   -5.5
C     9.6    3.1   -4.1
H    -5.6    9.3   -1.4
P    -0.4   -6.4    8.8
N    -0.5    9.5   -5.4
C     4.7    3.2    9.3
C    -4.9    9.7    0.5
I     6.1   -5.8   -7.0
H    -5.2    9.5    1.5
H     9.2   -2.3   -5.5
I     4.0   -9.5    3.8
I     2.1    0.5  -10.7
H    -8.9   -3.1    5.6
P    -0.5   -6.4   -8.9
H    -3.8    4.1    9.4
H     0.3    9.5    5.6
I     4.3    9.4   -3.8
H    -6.3   -2.2    8.7
H     0.4   -9.5    5.7
H    -1.2   -9.5   -5.5
C     9.5    3.2    4.6
I    10.7   -0.5    2.6
H    -3.7  -10.4    0.1
H    -1.6   10.3   -3.7
N    -5.6   -9.5    0.1
H    10.0    2.3    4.2
N     4.3    3.1   -9.8
H     3.8    3.3    9.9
H     0.7   10.3    4.1
H     5.2    2.3    9.6
H     3.2   -3.1   10.2
H    -5.7   -9.5    1.2
I    -3.0   -0.6   10.7
H   -10.3    3.1    3.2
H     0.8  -10.4    4.2
H    -1.5  -10.4   -4.0
H    -6.4   -2.3   -8.9
H     5.2   -4.0    9.1
H    10.0    2.2   -4.5
I    -4.9    9.4   -3.8
C    -5.9   -3.1    9.1
H   -10.4   -3.2    3.0
H     9.3   -3.1    5.6
H     9.8   -4.0    4.1
N    -4.9    3.1   -9.8
H    -4.4   -3.2  -10.0
H     0.9  -10.4   -4.5
H     9.1   -4.0   -5.6
H    -1.3    9.6   -6.0
H    -1.7   10.3    4.5
I    -6.9    5.8    6.9
I    -5.2   -9.5    3.8
I     4.1   -9.5   -4.8
H     3.7    3.9  -10.1
C   -10.2   -3.2   -4.0
N   -10.2    3.1    4.2
H    -1.6  -10.3    4.6
N   -10.1    3.1   -4.4
I    11.3    0.4   -1.8
I     6.7   -6.9    6.3
I     1.6   -0.5   11.4
P    -9.6    6.3    0.1
H    -9.2   -4.0   -5.6
H     4.8   -3.2  -10.0
I     6.1    6.8   -7.0
H    -6.3   -4.0    8.7
H    -4.0    3.0  -10.4
I    -7.6   -5.9   -6.3
H   -10.6    2.3   -4.0
N    -9.7   -3.2   -5.4
P    -9.7   -6.3    0.1
H    10.0    4.1    4.2
H    -6.8    9.3   -0.3
H     4.1   10.8    0.4
I    -2.5    0.6  -11.3
H    -5.5    2.2   -9.9
H     5.3    4.1    9.4
H   -10.7   -2.3   -3.7
C   -10.4   -3.2    4.1
I     4.3    9.5    5.1
H     9.6    3.2    5.7
H     0.1   10.3   -5.5
H    10.0    4.0   -4.5
H    -6.4   -4.1   -9.0
H     5.4  -10.4    0.1
H    -5.4    3.3    9.9
I   -11.5    0.4   -2.5
I    -4.8    9.5    5.1
H   -10.6    2.3    4.6
I    -5.1   -9.5   -4.8
H    11.4   -3.3   -0.3
H    -5.0   10.8    0.4
H     5.1    3.0  -10.4
I    -7.6    6.7   -6.3
H     7.4    8.5   -3.9
I    -7.0   -6.8    6.9
H   -10.6    3.9   -4.0
H   -10.9   -2.3    4.5
H   -10.2    3.1   -5.5
H    -6.1  -10.4   -0.2
H    -5.4    3.9  -10.1
H     3.7   -8.6    7.6
I     8.5    3.1   -8.1
H    -1.4   -3.0   11.7
H     7.5    8.5    4.5
I   -12.0   -0.4    2.1
H    -5.9   -3.1   10.2
H     7.6   -8.7   -4.0
H   -10.9   -4.1   -3.9
H   -10.6    4.0    4.6
I     2.2    5.8  -10.7
I     8.8   -3.1    8.1
H     0.5    3.1  -12.0
H     7.5   -8.7    4.6
P     8.7    0.0   -8.8
H     0.1   -2.3   12.2
I    10.6   -5.8    2.6
I     6.2   -0.6   10.7
I    10.7   -0.5   -6.3
P     8.7    0.1    8.8
H    12.2    2.2   -0.2
H   -10.9   -4.1    4.5
H     3.2    9.4   -7.5
I    -0.7   -9.5   -8.1
I    -0.3    9.5    8.1
H   -10.5   -3.0   -6.0
I     1.7   12.1    2.6
H    -3.9   -8.6   -8.2
H     0.2   -3.2  -12.1
I    -3.0   -5.8   10.7
I     2.1  -12.2   -1.8
H     2.9    8.6    8.7
P    -0.4   12.6    0.1
H    -1.1    3.2   12.2
H    -8.3   -8.6    4.2
H     7.9    9.4    3.0
P    -0.5  -12.7    0.1
H     2.8    8.5   -9.0
