         400
 sphere cut out from bulk 
H     0.9    1.4   -1.0
H    -0.6    1.5   -1.7
P    -1.2   -1.1    1.7
I     1.2    1.2    1.7
N     0.4    1.8   -1.8
I     0.4   -2.6   -0.5
I    -2.7    0.6   -0.6
H     0.4    2.8   -1.7
H     0.9    0.3   -3.2
C     0.9    1.4   -3.2
H     3.5    0.0    1.9
H     3.6   -1.9    0.5
H     2.0    1.7   -3.2
H     2.9   -2.3    2.0
H     0.3    1.8   -3.9
H    -1.9   -3.3   -2.2
C     3.8   -2.0    1.5
H    -3.2    2.7    2.0
N     4.2   -0.7    2.0
I     0.4   -2.6    4.0
I    -2.7    0.7    3.9
H     1.0    1.4    4.6
I     4.3   -1.0   -2.3
H     0.2   -4.8    1.5
H    -2.1    4.6    1.0
H    -3.6   -3.2   -1.6
I    -3.5   -3.3    1.7
I     0.5    5.1   -0.6
P     2.4   -3.6   -2.8
P     2.5    4.3    1.7
C    -2.9   -3.7   -2.3
H     5.1   -0.4    1.6
H    -0.6    1.5    5.1
H     4.4   -0.8    3.1
N    -3.7    3.5    1.8
H    -4.2    3.4    0.9
I     0.8   -2.0   -5.1
N     0.3    1.8    5.3
H     4.6   -2.8    1.7
I     4.6    3.2   -0.5
H    -3.3   -2.4   -3.9
C    -2.8    4.7    1.7
P    -4.9    1.6   -2.8
H     0.4    2.9    5.1
H    -2.3    4.8    2.7
C     0.8   -5.7    1.7
H    -2.9   -4.8   -2.2
I    -3.3   -0.1   -5.1
N    -3.4   -3.4   -3.7
H    -5.9   -0.4    1.6
H     1.6   -5.9    1.0
I    -3.0    4.2   -3.4
H    -4.4    3.6    2.5
H     1.3   -5.6    2.7
I     0.4    5.1    3.9
H    -2.7   -3.9   -4.5
H    -3.4    5.6    1.5
I     4.1   -5.3   -0.6
I     4.5    3.2    4.0
H     0.8    0.4    6.8
C     0.8    1.5    6.7
P     6.1    1.6   -2.8
H    -4.3   -3.7   -3.9
H    -3.3   -3.4    5.1
H    -1.7   -3.5    5.8
I     4.1    2.6   -5.1
N    -6.8   -0.7    2.0
N    -0.1   -6.9    1.8
H    -0.6   -7.0    0.9
I     4.3   -1.0    5.6
I     0.6   -6.2   -3.4
I    -6.7   -1.0   -2.3
I    -6.4    3.2   -0.5
H    -6.4   -2.8    1.7
H     2.9   -1.6   -6.5
H    -0.8   -6.8    2.5
H     1.8    1.9    6.8
H    -6.6   -0.8    3.1
P    -1.2    6.8   -2.8
P    -1.2   -1.0   -7.3
H     4.4    5.6   -2.2
C    -2.7   -3.8    5.9
I     0.2    1.9   -7.3
P     2.4   -3.6    6.2
H     6.8    3.4    0.9
H     0.1    2.0    7.4
C    -7.2   -2.0    1.5
H    -7.4   -1.9    0.5
I     4.0   -5.3    3.9
I    -2.8   -7.2   -0.5
H    -7.5    0.0    1.9
I     0.9    5.9   -5.1
H     0.9    7.7    1.7
H     6.6    3.6    2.5
H    -2.9    4.4   -5.9
P    -4.9   -6.1    1.7
H     0.4   -7.8    2.0
H     5.0   -0.4   -6.3
P    -4.9    1.6    6.2
H    -2.8   -4.9    5.8
H    -2.8    2.4   -7.3
I     4.6   -4.5   -5.1
N     3.6   -1.7   -7.2
I    -6.5    3.2    4.0
H     7.4   -3.2   -1.6
I     3.9    7.1    1.7
H     3.8    7.2   -1.6
I     8.3    0.6   -0.6
N     7.3    3.5    1.8
H     3.1    6.7   -3.9
H    -3.3   -2.4    7.3
I     7.5   -3.3    1.7
C     4.5    6.7   -2.3
H    -0.8    8.1    2.0
I    -3.2    7.8   -0.5
H     3.9    0.4   -7.5
H     0.7   -6.0   -5.9
H    -0.0    8.5    0.5
I    -3.0    4.2    6.7
H     4.1   -2.6   -7.0
H     7.8    2.7    2.0
C     0.2    8.4    1.5
C     4.5   -0.5   -7.3
H     6.7   -3.7   -3.9
N    -3.3   -3.4    7.2
I    -2.9   -7.2    4.0
H    -8.1   -2.3    2.0
I    -2.5   -4.0   -7.3
H    -6.0   -0.4   -6.3
I    -6.9   -5.3   -0.6
P     2.4    4.1   -7.3
I    -6.7   -1.0    5.6
H    -4.5    2.9   -7.0
H     4.0   -7.6   -1.7
I     0.9   -2.0    8.5
N    -3.1    4.5   -7.0
P     6.2   -6.1    1.7
C    -3.5    3.2   -7.5
H    -0.2   -5.2   -7.2
H     3.1   -1.9   -8.1
P     6.1    1.6    6.2
N     4.0    7.0   -3.7
H    -6.6    5.6   -2.2
H     7.7   -2.4   -3.9
I    -6.9    2.6   -5.1
I    -3.2   -0.1    8.4
H    -2.2    4.8   -7.4
I     8.3    0.7    3.9
N     7.7   -3.4   -3.7
N     0.5   -5.9   -7.0
I     0.6   -6.2    6.7
H     4.6    6.6   -4.5
C     8.1   -3.7   -2.3
H     5.5    7.1   -2.2
H    -5.5    7.1   -2.2
I     7.7   -0.1   -5.1
H     4.6    5.5    5.8
H    -2.8   -3.8    8.0
H    -4.3   -3.7    7.3
P    -1.2    6.8    6.2
P    -1.3   -8.8   -2.8
I    -3.2    7.9    4.0
I    -6.4   -4.5   -5.1
H     1.4   -5.7   -7.4
H     7.6    5.6    1.5
H     4.0    7.0    5.1
I    -7.0   -5.3    3.9
H     3.0   -9.0   -1.7
C     8.2    4.7    1.7
H    -3.9    5.2   -7.2
P    -8.5    4.3    1.7
H     8.1   -4.8   -2.2
C    -6.5    6.7   -2.3
H     5.2   -0.7   -8.1
I     8.0    4.2   -3.4
I     0.7    9.4   -2.3
N     4.0   -8.6   -1.8
P    -8.6   -3.6   -2.8
H    -9.0    1.7   -3.2
C    -6.5   -0.5   -7.3
I     0.9   -2.0   -9.5
H     7.7   -3.4    5.1
I     4.1    2.6    8.5
H     4.0    8.0   -3.9
I     0.9   -9.8   -0.6
I    -3.3   -7.8   -5.1
H    -3.7    3.2   -8.6
H    -5.8   -0.7   -8.1
H     4.0   -7.6    5.1
N     0.6    9.7    2.0
H     9.1   -3.3   -2.2
P     9.8   -1.1    1.7
C     4.6    6.6    5.9
H     6.5    2.9   -7.0
I    -9.8    1.2    1.7
H     8.9    4.6    1.0
H    -6.9   -2.6   -7.0
H     8.3   -3.9   -4.5
H     4.5   -9.0   -1.0
I    -3.2   -0.1   -9.6
H     0.8    9.7    3.1
H    -6.4    6.6   -4.5
I    -2.8    8.4   -5.1
I    -7.1    7.1    1.7
H   -10.1    1.4   -1.0
H     1.5   10.0    1.6
H    -6.4    5.5    5.8
H     4.0   -8.6   -3.9
H    -0.8   -7.5   -7.0
H     8.7    4.8    2.7
H    -7.2    7.2   -1.6
I     1.0    5.9    8.4
H    -7.1    0.4   -7.5
H     3.1    6.7    7.3
C     0.1   -7.3   -7.5
N    -7.4   -1.7   -7.2
I     0.9   -9.7    3.9
H    -7.0   -7.6   -1.7
I     4.8   -9.2    1.7
H     0.5    7.8   -7.0
H    -8.1   -1.6   -6.5
H    -5.3    7.0    5.8
N    -7.0    7.0   -3.7
H     3.1   -1.8    9.9
H   -10.1    0.3   -3.2
H    -0.2   10.4    1.9
H     6.7   -3.7    7.3
C   -10.1    1.4   -3.2
I     4.6   -4.5    8.4
C     4.6   -9.1   -3.2
H    10.4    1.5   -1.7
P    -4.9    9.3    1.7
H    -3.7    3.3    9.5
H     5.7    7.0    5.8
H     3.0   -8.9    5.1
I     4.1    2.5   -9.6
H    -5.4   -8.7   -3.2
P    -1.2   -0.9   10.7
H     5.6   -8.7   -3.2
C     8.3   -3.8    5.9
N     4.0   -8.6    5.3
N     4.1    7.0    7.2
H     0.1    2.0  -10.7
H     0.9   -8.0   -7.3
P    -1.2   -8.8    6.2
H     7.7   -2.4    7.3
P    -4.9   -6.3   -7.3
C    -6.4    6.6    5.9
I     0.2    2.0   10.7
I     4.9    6.4   -7.3
I   -10.6   -2.6   -0.5
N   -10.6    1.8   -1.8
H     8.1    4.4   -5.9
I     8.2   -7.2   -0.5
H    -0.7    8.8   -6.5
I     0.7    9.4    5.6
C     7.5    3.2   -7.5
I     7.8    7.8   -0.5
N     7.7   -3.4    7.2
H    -7.9    6.7   -3.9
H     4.6   -9.0    4.6
H    -7.0    7.0    5.1
H    -2.8   -3.9  -10.1
H   -10.6    2.8   -1.7
H   -10.1    1.4    4.6
H    -6.5   -9.0   -1.0
H    -9.4   -5.9    1.0
P    -8.6   -3.6    6.2
H    -2.3  -10.8    1.6
H    -0.1   -7.2   -8.6
I    -6.2   -9.2    1.7
H     8.2   -4.9    5.8
I    -6.9    2.6    8.5
H     3.9    0.4   10.5
H     0.7    0.4  -11.2
H     8.2    2.4   -7.3
I     1.0    5.8   -9.6
N    -7.0   -8.6   -1.8
I     8.0    4.2    6.7
H    -3.9  -10.4    1.9
P     6.1    9.3    1.7
H     5.3   -0.6   10.0
N    -0.0    8.7   -7.2
H    -7.0    8.0   -3.9
H     7.2    5.2   -7.2
H     4.6    6.6    8.0
H    -2.7    2.5   10.8
P     6.1   -6.3   -7.3
N     7.9    4.5   -7.0
I     7.8   -0.1    8.4
H    -7.9   -1.9   -8.1
H    -2.7   10.7   -3.2
C     0.8    1.5  -11.4
H     9.3   -3.5    5.8
H    -3.3   -2.4  -10.7
H    -9.7   -5.6    2.7
I    -6.1    6.4   -7.3
H    -7.0   -7.6    5.1
H   -10.7    1.8   -3.9
H    -5.7   -0.6   10.0
H     1.8    1.8  -11.2
I    -6.4   -4.5    8.4
I   -10.2   -2.0   -5.1
N     3.6   -1.6   10.8
C    -6.4   -9.1   -3.2
I     8.2   -7.2    4.0
H     4.5  -10.2   -3.2
I     4.6   -4.6   -9.6
C    -3.5    3.2   10.6
H    -9.2    1.9    6.8
I   -10.6   -2.6    4.0
H     4.1    8.1    7.3
H    10.4    1.5    5.1
N    11.4    1.8   -1.8
I    -2.5   -3.9   10.7
C     4.5   -0.5   10.8
I     0.3  -10.5   -5.1
H     7.3    3.2   -8.6
I   -10.5    5.1   -0.6
N    -3.2  -11.1    2.0
P     2.5    4.1   10.7
I    11.4   -2.6   -0.5
I     7.8    7.9    4.0
H     3.7   -8.4    7.4
H    -0.5    8.6   -8.1
C   -10.2   -5.7    1.7
H    -7.0   -8.6   -3.9
H   -11.6    1.5   -1.7
H    11.4    2.8   -1.7
H    -2.2    4.8   10.6
H    -0.1   -7.1    9.5
I     3.8   -8.5   -7.3
N    -3.3   -3.5  -10.9
P     2.4  -11.5    1.7
H   -10.8   -4.8    1.5
H     1.4   10.0   -6.3
I     8.5   -4.0   -7.3
C     4.4   -8.9    6.7
H    -3.0  -11.2    3.1
I    -3.2   -7.8    8.5
P    -8.6    4.1   -7.3
H    -6.4   -9.0    4.6
I     4.7   11.1   -0.6
H     2.9   -1.5   11.6
I    -2.4   11.7    1.7
N   -10.7    1.8    5.3
I    -6.9    2.5   -9.6
H    11.9    1.4   -1.0
H     1.4   -5.6   10.6
H    -0.2   -5.2   10.9
I    -3.1  -11.4   -2.3
H     8.2   -3.8    8.0
H     4.1   -2.5   11.1
I     7.7   -7.8   -5.1
H    -8.0   -9.0   -1.7
H    11.3    1.8   -3.9
H   -10.7    2.9    5.1
H    -2.7   11.8   -1.0
H    -4.3   -3.8  -10.7
H     5.4   -8.5    6.8
H    -6.4    6.6    8.0
N    -6.9    7.0    7.2
I     4.1   10.3   -5.1
H    -5.6   -8.5    6.8
P     9.8    6.8   -2.8
H    -4.4    2.9   11.1
N    -7.0   -8.6    5.3
I    -2.7    8.5    8.5
C   -10.2    1.5    6.7
P     9.8   -1.0   -7.3
H    11.2   -4.8    1.5
H   -10.2    0.4    6.8
C     0.9    9.9   -7.3
N    -3.1    4.5   11.1
H    11.9    0.3   -3.2
I    11.4   -2.6    4.0
I    12.2    1.2    1.7
I     7.8   -0.1   -9.6
I   -10.6    5.1    3.9
I    -3.0    4.2  -11.3
P   -12.3   -1.1    1.7
H     7.3    3.3    9.5
I    -6.4   -4.6   -9.6
C    12.0    1.4   -3.2
H    -6.5  -10.2   -3.2
H     8.8    4.8   -7.4
C    -2.7   11.8   -3.2
H    10.2   -6.8    2.5
N     0.5   -5.9   11.1
C    -6.5   -0.5   10.8
P     2.5   12.0   -2.8
I   -10.4   -6.2   -3.4
I    11.5    5.1   -0.6
H    10.4   -7.0    0.9
P     2.4   -3.7  -11.8
N    11.4    1.8    5.3
H    -1.6   12.1   -3.2
H    -7.9    6.7    7.3
H    -3.8    5.2   10.9
I     4.6   11.2    3.9
