         400
 sphere cut out from bulk 
P     0.6   -1.2    0.5
I    -1.3    0.8    2.0
I     1.4    1.2   -1.9
I    -1.8   -1.6   -1.8
H     1.1    3.1    0.2
H    -3.5    0.6   -1.4
I     3.3   -0.5    1.8
H     0.1    3.1    2.3
H    -0.5    3.9    0.2
C     0.5    4.0    0.5
P     0.5   -1.2   -3.9
I     2.2   -3.0   -1.9
I    -0.2   -4.0    1.7
H     4.0    1.3   -1.4
H    -3.6    2.3   -1.4
N     0.6    4.0    2.0
H    -3.2   -3.2   -0.4
N    -4.0    1.4   -1.7
H     1.5    4.0    2.3
H    -3.0    1.4   -3.6
H     1.0    4.9    0.2
H     1.1    3.3   -4.0
C    -4.0    1.3   -3.2
H    -4.1   -2.9    1.8
H    -5.0    1.3   -1.4
H     0.1    4.8    2.3
N     5.0    1.4   -1.7
H     4.2   -3.5   -0.5
N    -4.0   -3.9   -0.1
P    -4.0    1.3    3.7
I    -2.5    4.6   -1.9
H    -0.5    3.9   -4.0
H    -3.1   -4.4    1.8
H    -4.5    0.4   -3.5
H     5.6    0.6   -1.4
H     4.6    0.4   -3.5
C    -4.0   -3.9    1.4
H     0.6   -5.8   -0.4
H    -0.4   -0.8    5.7
H     1.4   -0.7    5.8
C     0.5    4.1   -4.4
H     4.9   -2.9    1.8
H    -4.9   -3.5   -0.5
H     5.4    2.3   -1.4
I    -5.8   -0.5    1.8
I    -1.1    0.7   -5.9
H     4.4    2.1   -3.6
I     4.2    3.9    2.0
H    -0.0   -5.4   -2.8
C     5.0    1.3   -3.2
H    -3.8   -4.8   -0.5
H     0.6   -2.3    5.7
C     0.5   -1.3    6.1
H    -4.6    2.1   -3.6
H     4.1   -4.5    1.7
N     5.1   -3.9   -0.1
P     5.1    1.3    3.7
I    -4.8    3.9    2.0
H     0.9    5.0   -4.1
C     5.0   -3.9    1.4
I     2.5    2.0    5.7
H     5.8   -3.2   -0.4
N     0.4   -6.6   -1.0
I     2.9   -0.6   -6.0
I    -3.3   -1.1    5.7
H     1.7   -6.0   -2.6
C     0.6   -6.3   -2.5
I    -0.3   -3.5   -5.9
H    -4.9   -4.5    1.7
I    -2.2    3.2    5.7
H    -0.6   -6.8   -0.9
H     0.1    3.1   -6.2
I     2.6    6.2   -1.9
H    -4.0   -2.8   -5.1
H     5.3   -4.8   -0.5
N     0.5    4.0   -5.9
H     6.0    1.4   -3.6
H     1.0   -7.4   -0.7
I    -1.3    7.1    1.9
P     0.5   -6.5    3.8
H    -3.3   -4.4   -5.1
I     2.3   -4.6    5.6
I     7.2   -1.6   -1.8
H     5.9   -4.4    1.8
H     1.5    4.1   -6.2
P    -4.0    6.5    0.5
I    -6.8   -3.0   -1.9
N     0.5   -1.3    7.6
H     5.1   -2.8   -5.1
H     4.0   -4.2   -5.1
I    -3.2   -6.8   -1.8
H     0.3   -7.1   -3.1
C    -4.1   -3.8   -5.5
H    -0.1    4.8   -6.2
I    -7.6    1.2   -1.9
H     0.3   -0.3    8.0
I     3.0   -7.2    1.8
I     7.8    0.8    2.0
P     0.5    4.0    7.0
I     5.7   -1.1    5.7
H    -0.2   -1.9    8.0
I     6.5    4.6   -1.9
P     5.0    6.5    0.5
H     1.4   -1.6    8.0
I    -2.1   -5.8    5.5
H    -3.1    1.2   -7.6
C     4.9   -3.8   -5.5
P     0.5   -1.2   -8.3
H    -5.0   -4.2   -5.1
I     4.1    4.3   -6.0
H     1.1    8.3   -0.7
H    -7.9    3.1    0.2
P    -8.5   -1.2    0.5
I    -6.1   -0.6   -6.0
P    -4.0    6.6   -3.9
H    -3.2   -3.4   -7.3
I     1.2    6.6    5.5
H     4.3    0.8   -7.6
H    -3.1    1.8    8.0
H    -3.9    5.6    5.5
H    -7.5    4.0    2.3
I    -4.9    4.3   -6.0
I    -1.4   -8.6    1.9
H     5.8   -4.4   -5.1
I    -6.5    2.0    5.7
H    -0.5    8.9   -0.9
N    -4.1   -3.8   -7.0
P    -4.0   -3.9    7.0
H    -4.1    0.4    7.9
H    -4.8    0.8   -7.6
H    -4.2    2.4   -7.6
N    -4.0    1.5   -8.0
H     4.2   -3.3   -7.4
H     0.4    8.6   -3.1
I    -6.4    6.2   -1.9
H     0.2   -5.5   -7.3
P     5.0    6.6   -3.9
N     0.4    9.1   -1.0
I     5.9   -6.8   -1.8
H     4.3    1.9    7.9
I     3.1    8.5    1.8
H     4.8    2.4   -7.6
I    -1.6    7.0   -6.0
N    -4.0    1.4    8.3
H     5.1    5.6    5.5
N     5.0   -3.8   -7.0
H     5.0    0.4    7.9
H     8.5    3.9    0.2
H    -4.9   -3.3   -7.4
C    -8.5    4.0    0.5
P     5.0   -3.9    7.0
P    -8.5   -1.2   -3.9
H    -7.9    3.3   -4.0
H    -8.1    4.9    0.2
H    -4.8    1.9    7.9
N     5.0    1.5   -8.0
I     6.9    3.2    5.7
I    -0.2    1.7    9.4
I    -6.0   -7.2    1.8
I    -3.1    8.9   -1.8
H    -3.1    7.2    5.5
N    -8.5    4.0    2.0
H    -7.6   -0.7    5.8
H     5.9    1.2   -7.6
P     9.6   -1.2    0.5
H    -4.1   -4.8   -7.4
C    -4.0    6.6    5.8
H    -9.0    3.1    2.3
C     0.7    9.4   -2.5
N     5.0    1.4    8.3
I    -6.7   -4.6    5.6
H    -7.4   -6.0   -2.6
I     8.9   -4.0    1.7
H     4.1    7.1    5.5
I     7.9    0.7   -5.9
H     9.1    3.1    2.3
I     1.2    1.4   -9.8
I     3.4   -7.2   -5.9
P     0.6    9.2    3.8
H     0.7    9.9   -0.4
H     5.8   -3.4   -7.3
I     2.5   -9.5   -1.9
I    -2.2   -1.9   -9.6
H     4.9   -4.8   -7.4
H     1.3   -6.8   -7.3
N     0.4   -6.5   -7.7
P    -4.1   -9.2    0.5
H     5.9    1.8    8.0
I    -1.6   -3.5    9.3
I    -9.2   -4.0    1.7
I     3.4   -2.1    9.4
C     5.1    6.6    5.8
H     1.7    9.7   -2.6
H     8.5    3.9   -4.0
H    -0.3   -7.1   -7.3
H    -8.4   -5.8   -0.4
H    -4.9    7.1    5.5
H    -9.5    3.9    0.2
C     9.6    4.0    0.5
P     9.6   -1.2   -3.9
C    -4.1    1.5   -9.5
I     2.4   -3.2   -9.6
H     8.6   -0.8    5.7
H    -8.2    5.0   -4.1
C    -8.5    4.1   -4.4
H    -3.0    6.3    7.7
P     5.0   -9.2    0.5
H    -9.0    4.8    2.3
H    -8.5   -2.3    5.7
H    -3.2    2.0   -9.8
I   -10.3    0.8    2.0
I    -6.0    8.5    1.8
C    -8.5   -1.3    6.1
H     9.1    4.8    2.3
N     9.6    4.0    2.0
I     6.9   -5.8    5.5
H    -4.0    0.4   -9.8
H    -3.2   -8.5    5.5
H    -7.6    4.1   -6.2
H    10.2    3.1    0.2
H     0.0   10.3   -2.8
N    -4.0    6.6    7.3
I    10.4    1.2   -1.9
I     7.7    7.1    1.9
I    -1.7   -8.7   -6.0
H    -3.2    0.7   10.2
H    -0.1   -5.7    9.1
C    -4.0    1.3    9.8
P    -4.1   -9.1   -3.9
H     4.4    6.0    7.7
I     1.2   -9.1    5.5
H     4.1    1.9   -9.8
I     3.0    4.5    9.3
C     5.0    1.5   -9.5
C    -8.4   -6.3   -2.5
I     5.9    8.9   -1.8
H     0.9  -10.8    0.2
H     5.9    7.2    5.5
H    -4.7    6.0    7.7
H     9.0   -5.4   -2.8
H     8.4   -6.8   -0.9
I     3.4    8.5   -5.9
N    -8.6   -6.6   -1.0
H    -8.0   -7.4   -0.7
H    -9.1   -5.4   -2.8
I    -5.7   -7.2   -5.9
H     4.1    0.9   10.2
H     4.1   -8.6    5.5
H     5.0    0.4   -9.8
P     5.0   -9.1   -3.9
H    -9.4   -0.8    5.7
H    -9.6    3.9   -4.0
I    -2.1    4.7   -9.8
I    -5.6   -2.1    9.4
I     8.7   -3.5   -5.9
H     0.0  -10.9    2.3
C     5.0    1.3    9.8
N     5.1    6.6    7.3
N    -8.5    4.0   -5.9
I    -1.1    5.9    9.4
I   -10.9   -1.6   -1.8
H    10.0    4.9    0.2
H    -5.0    1.9   -9.8
H    -7.6   -1.6    8.0
H    -3.9    2.4   10.2
H     1.5   -6.4    9.1
H     9.6   -5.8   -0.4
C     0.4   -6.4   -9.2
C     9.5    4.1   -4.4
H    -0.5   -6.0   -9.6
H     1.3   -5.9   -9.5
H    -0.2    8.6   -7.3
H    -9.0    3.1   -6.2
H    -5.0    0.9   10.2
H    -5.0   -8.6    5.5
P    -8.5   -6.5    3.8
C     9.5   -1.3    6.1
P    -4.0    6.6   -8.4
H     9.6   -2.3    5.7
H    10.2    3.3   -4.0
H     0.8  -10.7   -4.1
N     0.5   -6.5    9.4
H     9.1    3.1   -6.2
N    -8.5   -1.3    7.6
I    -2.0    9.9    5.5
H    -3.7   10.9   -0.5
I    -2.6  -11.1   -1.9
C    -4.0   -9.1    5.8
N     9.4   -6.6   -1.0
H    10.6    4.0    2.3
H    -8.0    8.3   -0.7
I    -9.3   -3.5   -5.9
H    -4.2    7.6    7.7
H     5.8    2.0   -9.8
I    -7.8    6.6    5.5
H     1.4    8.9   -7.3
H     5.1    2.4   10.2
I     7.7   -8.6    1.9
H     6.0    6.3    7.7
I     2.3    6.0   -9.7
H    -8.7   -7.1   -3.1
I    -6.5   -9.5   -1.9
H     5.9   -8.5    5.5
H     0.1   -7.4    9.1
C     0.5  -11.7    0.5
P    -8.5    4.0    7.0
C     9.6   -6.3   -2.5
H     5.8    0.7   10.2
I    -5.6    8.5   -5.9
P     5.0    6.6   -8.4
I   -10.2    0.7   -5.9
I    11.3   -3.0   -1.9
I    -0.1   11.7    1.7
I     7.4    7.0   -6.0
H    -0.6  -11.8    0.2
H    -3.0   11.3    1.8
H     9.9    5.0   -4.1
H    -8.7   -0.3    8.0
H    -9.6   -6.8   -0.9
H     4.9    7.6    7.7
C     5.0   -9.1    5.8
N     0.5  -11.7    2.0
N     9.5    4.0   -5.9
I     6.8   -1.9   -9.6
H    10.4   -0.7    5.8
H     9.0    4.8   -6.2
P    -8.6   -1.2   -8.3
I    -3.4   -6.3   -9.6
I     4.2   -6.2    9.3
H    -4.2   -8.1    7.7
I    -6.1    4.5    9.3
H     1.5  -11.7    2.3
H     8.8   -1.9    8.0
H    -9.1    4.8   -6.2
N     0.5    9.3   -7.7
H     4.2   11.2    1.7
I    -6.6   -3.2   -9.6
P     0.6    4.0   11.4
H     5.3   10.9   -0.5
P     9.5   -6.5    3.8
H     0.5   -7.5   -9.6
H    -4.0  -10.1    5.5
H     9.4   -7.1   -3.1
H     4.8   -8.1    7.7
P     0.5    4.0  -11.5
I    -4.9   -6.2    9.3
N     9.5   -1.3    7.6
H     9.3   -0.3    8.0
H     8.5    8.9   -0.9
H    -4.8   11.2    1.7
H     0.1    8.3    9.1
N    -4.0   -9.1    7.3
H    -9.3   -1.9    8.0
H     0.4   -2.0   12.2
H    -7.3    9.7   -2.6
I     7.4   -3.5    9.3
N    -3.9   11.8   -0.1
C     0.4  -11.6   -4.4
I    12.3   -0.5    1.8
H    10.0   -7.4   -0.7
H    -0.6  -11.8   -4.0
C    -4.0   11.8    1.4
H    -8.6    8.6   -3.1
H    10.7   -6.0   -2.6
H    -3.1   -9.4    7.7
H     0.9   -5.5   11.2
H    -0.1  -10.9   -6.2
H     0.3   10.2   -7.3
P     9.6    4.0    7.0
H     0.0   -0.3   12.5
H     5.1  -10.1    5.5
N    -8.6    9.1   -1.0
H   -12.5    0.6   -1.4
H    -7.7   -6.8   -7.3
I   -11.6    4.6   -1.9
H     1.1  -12.6    0.2
I    -7.9    1.4   -9.8
H     0.6    8.2   -9.6
H   -12.0    1.4   -3.6
I     4.1  -11.8    2.0
P     9.5   -1.2   -8.3
I     2.4   11.1    5.6
H   -12.3   -3.2   -0.4
P    -4.0   -3.9   11.4
H    -8.8   -5.5   -7.3
C     0.5   -6.5   10.9
I   -10.3    7.1    1.9
N     5.0   -9.1    7.3
H    -3.2   11.3   -5.1
H     0.0  -12.6    2.3
I     5.7   -6.3   -9.6
H     1.7   -0.8   12.7
P    -4.0   -3.8  -11.6
C    -8.4    9.4   -2.5
H    -3.2   12.5   -0.4
I     7.4   -8.7   -6.0
C     0.7   -1.1   12.8
H     4.2   12.2   -0.5
N     5.1   11.8   -0.1
H    10.5    4.1   -6.2
