         400
 sphere cut out from bulk 
I     0.2    0.9   -1.3
P     0.2   -1.3    1.1
I    -2.2    0.6    2.1
I     2.7    0.6    2.1
P    -2.2    2.8   -0.3
I    -2.2   -2.9   -0.4
I     2.6   -2.8   -0.4
H    -0.6   -3.0   -2.4
P     2.7    2.9   -0.3
H     0.9   -2.7   -2.9
N     0.0   -3.2   -3.2
H     0.9    1.0   -4.3
I     0.2    4.4    1.1
I     0.2   -3.0    3.7
H    -0.4   -2.7   -4.0
I    -4.7    0.9   -1.3
P    -4.7   -1.4    1.0
H     2.1   -0.0    4.8
H    -0.5    3.1   -4.4
P     5.1   -1.4    1.0
C     0.4    1.3   -5.2
I     5.2    0.9   -1.3
H    -0.5    0.8   -5.3
H    -2.8   -0.2    4.8
I    -2.1    4.3   -3.0
H     0.6   -5.1   -2.5
C     0.2   -4.7   -3.4
H    -1.4   -1.2    5.5
N     0.2    2.8   -5.2
I     2.7    4.3   -3.1
H    -4.6    0.7   -3.8
H     1.1    3.3   -5.0
I    -2.1   -1.7   -5.5
H    -3.9   -3.5   -3.3
C    -2.3   -0.7    5.7
H    -1.9    4.3    4.1
C     2.5   -0.5    5.7
H     1.1    1.1   -6.1
H    -3.8    0.0   -5.0
H    -0.7   -5.1   -3.7
H     4.1   -3.5   -3.3
I     2.7   -1.7   -5.5
H     0.9   -4.8   -4.2
H    -2.7   -4.8    3.3
H     5.2    0.7   -3.8
I    -4.6    4.4    1.0
H     3.5   -1.0    5.4
H     1.9   -1.3    6.1
H    -1.6   -5.8    2.6
H     1.8   -4.8    4.2
H    -1.4    1.1    6.3
H     2.8    5.3    2.9
I    -4.7   -3.0    3.6
H     1.9    4.7    4.3
N    -4.6    0.6   -4.8
H    -4.8   -4.2   -2.0
H     4.4    0.0   -5.1
H    -1.4    6.1    2.6
H    -3.7    2.4   -5.2
H    -0.3    3.1   -6.1
H     5.0   -4.2   -2.0
I     5.2    4.4    1.0
C    -4.8   -4.0   -3.0
I     5.1   -3.0    3.6
H    -3.0    5.8    2.5
H    -3.0   -1.4    6.2
N    -2.4   -5.8    3.1
N    -2.1    0.4    6.7
C     2.8    5.2    4.0
N     5.2    0.6   -4.8
C     5.0   -4.0   -3.0
I     0.3    3.0    6.5
H     3.4   -4.8    4.2
C    -2.1    5.4    4.4
H     4.4    2.5   -5.3
N    -2.3    6.2    3.1
H     0.8    6.9   -2.5
N     2.8    0.5    6.7
H     2.0    1.0    7.0
H     3.6    4.7    4.3
H     3.5    1.2    6.4
C    -4.6    1.9   -5.5
H    -3.2   -6.2    2.5
N     2.6   -5.3    4.5
H    -5.4    0.0   -5.1
H    -5.7   -3.5   -3.3
I    -7.1    0.6    2.1
H    -3.0    1.0    6.9
I     0.0   -7.5    1.1
H     5.9   -3.5   -3.3
P    -7.1    2.9   -0.3
H     2.6   -6.7    2.9
I    -7.2   -2.8   -0.4
H    -1.3    5.8    5.0
H    -1.7    0.1    7.6
H    -0.6    6.9   -3.7
C     5.3    1.9   -5.5
H     6.0    0.0   -5.0
I     7.6    0.6    2.1
H    -3.8    6.0   -3.5
H    -3.0    5.4    4.9
H    -4.0   -5.9   -3.5
H    -5.5    2.5   -5.3
H    -1.5   -6.2    5.0
C     0.4    7.3   -3.4
H     4.2   -5.9   -3.5
H     2.6   -5.3    5.5
N    -4.8   -5.3   -3.8
I     7.6   -2.9   -0.4
P     7.6    2.8   -0.3
H    -4.5    1.7   -6.6
C     2.6   -6.7    4.0
N     5.0   -5.3   -3.8
C    -2.3   -6.6    4.4
H     4.4    6.0   -3.5
H     3.2    0.1    7.6
H    -2.5    7.2    3.3
H     1.1    7.2   -4.2
H    -6.3   -1.0    5.4
H     6.2    2.4   -5.2
N     2.8    6.6    4.5
I    -4.6    3.0    6.5
H     7.0   -0.2    4.8
H    -4.8   -5.2   -4.8
H     2.0    7.2    4.2
I    -2.3   -7.7   -3.0
H     1.7   -7.2    4.3
I     2.5   -7.7   -3.1
H     5.3    1.7   -6.6
H     5.0   -5.2   -4.8
H    -3.2   -6.5    4.9
I     5.2    3.0    6.5
I     0.3   -5.1   -7.2
H    -5.4    6.0   -3.5
I    -7.1    4.3   -3.1
H    -6.2    4.7    4.3
N    -4.6    6.6   -3.8
H    -2.1   -7.6    4.1
H    -5.6   -5.9   -3.5
I    -1.9    3.1   -8.1
I    -4.8   -7.5    1.0
H    -6.4   -4.8    4.2
H     5.8   -5.9   -3.5
H     3.6    7.2    4.2
H     2.8    6.6    5.5
H    -6.3    1.2    6.4
I     5.0   -7.5    1.0
H     3.5   -7.3    4.3
P    -2.2   -3.1   -8.3
H    -7.7   -0.0    4.8
I    -7.1   -1.7   -5.5
I    -0.1   -1.4    9.1
H    -4.6    7.7   -2.0
H     6.0    6.0   -3.5
N     5.2    6.6   -3.8
H     7.1   -4.8    3.3
I     3.0    3.1   -8.2
H    -0.5    8.9   -2.4
C    -7.3   -0.5    5.7
P     2.7   -3.1   -8.3
H    -7.1    5.3    2.9
H     6.8    5.8    2.5
H     6.8   -1.4    6.2
I     7.7    4.3   -3.0
N     0.2    8.8   -3.2
I    -2.0    9.1   -0.4
H     6.6   -6.2    2.5
P     2.5   -9.0   -0.3
C     7.5   -0.7    5.7
P    -2.4   -9.1   -0.3
H    -4.6    6.7   -4.8
H     5.2    7.7   -2.0
I     2.8    9.1   -0.4
C    -7.1    5.2    4.0
I     7.7   -1.7   -5.5
C    -4.6    7.9   -3.0
I     0.4    9.0    3.7
I    -9.6    0.9   -1.3
N    -7.0    0.5    6.7
H     1.1    9.2   -2.9
P    -9.6   -1.3    1.1
H    -8.9   -2.7   -2.9
H     6.9    1.0    6.9
H     5.2    6.7   -4.8
I     0.3   -1.6   -9.7
H    -3.7    8.5   -3.3
N     7.4   -5.8    3.1
I     2.5   -5.3    8.0
I    -2.4   -5.3    8.0
H    -8.9    1.0   -4.3
H    -0.6   -8.9   -4.4
H     8.0    4.3    4.1
C     5.2    7.9   -3.0
H     9.2   -3.0   -2.4
I    -4.6   -5.1   -7.2
H     6.8    5.4    4.9
I     0.5    6.9   -7.2
N    -7.2   -5.3    4.5
H     0.9   -8.6   -5.0
H    -6.6    0.1    7.6
H    -0.2    9.2   -4.0
H     4.3    8.5   -3.3
H    -8.0   -1.3    6.1
H     8.4   -1.2    5.5
I    10.1    0.9   -1.3
P    10.1   -1.3    1.1
H    -8.0   -4.8    4.2
N     7.7    0.4    6.7
H    -8.0    4.7    4.3
N     7.6    6.2    3.1
I     5.2   -5.1   -7.2
P     0.2    4.7    9.1
H    -7.3   -6.7    2.9
I     4.8   -1.5    9.0
H    -6.2    7.2    4.2
C     7.7    5.4    4.4
I    -5.0   -1.5    9.0
H     8.2   -5.8    2.6
H     6.6   -6.5    4.9
N    -0.0   -9.2   -5.2
H    -7.2   -5.3    5.5
H    -7.9    1.0    7.0
H    -6.4   -7.3    4.3
H     8.4    1.1    6.3
I    -9.6    4.4    1.1
H     9.5   -2.7   -4.0
I    -4.5    8.9    3.6
H    -5.5    8.5   -3.3
I    -2.3    6.6    8.0
H    -8.8    3.3   -5.0
N    -7.0    6.6    4.5
C    -7.3   -6.7    4.0
P     0.6    4.6   -9.6
P     0.4   10.6    1.1
H    -8.7    1.1   -6.1
I     2.7    6.6    8.0
H     9.3    0.8   -5.3
I    -9.6   -3.0    3.7
H     8.4    6.1    2.6
H    -0.5   -8.9   -6.1
H     7.3    7.2    3.3
N    -9.8   -3.2   -3.2
I    -4.7   -1.6   -9.6
H     9.4    3.1   -4.4
H    -9.2   -5.1   -2.5
N     9.9   -3.2   -3.2
C    -9.4    1.3   -5.2
I    -4.4    6.9   -7.2
C     7.5   -6.6    4.4
H    -8.9   -4.8   -4.2
H     6.1    8.5   -3.3
I     5.3    8.9    3.6
I     5.2   -1.6   -9.6
I    -7.3   -7.7   -3.1
H     9.1   -5.1   -3.7
I    10.1    4.4    1.1
I    10.0   -3.0    3.7
P     2.4   -3.0   10.4
I     0.1   -9.0    6.5
P    -2.5   -3.0   10.4
H     8.1    0.1    7.6
I    -6.9    3.1   -8.2
I     0.0  -11.0   -1.3
I     7.5   -7.7   -3.0
H    -7.0    6.6    5.5
H   -10.5   -3.0   -2.4
H    -1.3   -0.1  -11.1
I    -2.3    3.2   10.5
C    -9.6   -4.7   -3.4
P    -4.7    4.7    9.1
H   -10.2   -2.7   -4.0
N    -9.6    2.8   -5.2
I     2.7    3.2   10.5
I     5.4    6.9   -7.2
P    -7.1   -3.1   -8.3
H    -7.8    7.2    4.2
H     8.5    5.8    5.0
P     5.1    4.7    9.1
P    -4.4    4.6   -9.5
H    10.8   -2.7   -2.9
H     8.3   -6.2    5.0
H    -3.8   -9.5   -5.2
I    -7.0    9.1   -0.4
P    -4.5   10.6    1.0
C    10.0   -4.7   -3.4
C    10.3    1.3   -5.2
H   -10.3    3.1   -4.4
H    -9.0    6.9   -2.5
H    10.7    1.0   -4.3
N    10.0    2.8   -5.2
H     4.2   -9.5   -5.3
H     7.8   -7.6    4.1
H     3.5   -0.1  -11.1
P    -7.3   -9.0   -0.3
P     0.0   -7.2    9.1
H   -10.4    0.8   -5.3
P     7.6   -3.1   -8.3
H     9.5    3.1   -6.1
H    -8.2   -7.2    4.3
H     0.7  -10.9   -4.3
I     7.9    3.1   -8.1
P     7.4   -9.1   -0.3
I     2.5  -11.4    2.1
I    -1.9   10.3   -5.5
I    -2.4  -11.4    2.1
C     0.2  -10.6   -5.2
H    10.4   -5.1   -2.5
P     5.4    4.6   -9.5
P     5.3   10.6    1.0
I    -9.5    3.0    6.5
I     7.8    9.1   -0.4
I     2.9   10.3   -5.5
H    -2.6    0.9  -11.7
H    -8.7    7.2   -4.2
H     2.3    0.9  -11.8
I    -4.8   -8.9    6.5
N    -1.8    0.4  -11.9
P     0.4   -7.3   -9.6
I    -7.4   -5.3    8.0
H     9.3    6.9   -3.7
I    -4.9  -11.0   -1.3
I     7.4   -5.3    8.0
I     5.0   -8.9    6.5
I     5.0  -11.0   -1.3
I    -2.1   -5.4  -10.7
H    -1.2   10.8    5.5
H   -10.1    3.1   -6.1
I    -2.1   -8.9   -8.1
H    -5.6   -9.5   -5.3
H     0.1    1.8   12.1
I   -12.0    0.6    2.1
P    -2.0    8.8   -8.3
H   -10.6   -5.1   -3.7
I     2.8   -5.5  -10.7
P   -12.0    2.8   -0.3
H    -1.1    1.1  -12.3
H     6.0   -9.5   -5.2
N     3.1    0.3  -12.0
H    -0.7  -11.1   -5.3
C    -9.4    7.3   -3.4
I   -12.0   -2.9   -0.4
I    -9.8   -7.5    1.1
I     2.8   -8.9   -8.2
C    -4.7  -10.0   -5.5
I    10.1    3.0    6.5
P     2.9    8.8   -8.3
H    10.9    3.3   -5.0
I     9.9   -7.5    1.1
I    -0.0   -5.0   11.4
H     2.1   10.7    6.1
H     0.9  -10.9   -6.1
H    10.8   -4.8   -4.2
H    10.9    1.1   -6.1
C     5.1  -10.0   -5.5
I     0.6    2.9  -12.2
H   -11.2   -1.2    5.5
H    -2.8   10.6    6.2
P    -4.9   -7.2    9.1
P     5.0   -7.2    9.1
I    -7.2    6.6    8.0
H    -1.6  -10.8    6.3
I    -1.9    6.5  -10.7
I    12.5    0.6    2.1
H    -6.3   -0.1  -11.1
H     3.7   11.0    5.4
H     2.2   -1.5  -12.5
I    12.5   -2.8   -0.4
H    -4.8  -11.2   -3.8
I     3.0    6.5  -10.7
C    -2.2   11.3    5.7
H    11.9   -0.0    4.8
I    -2.0   12.5    2.1
P    12.5    2.9   -0.3
H     5.0  -11.2   -3.8
I     7.6    6.6    8.0
H    10.6    6.9   -2.5
P    -4.6   -7.4   -9.5
H    -2.7   -1.4  -12.6
H    -2.6   11.7    4.8
H     3.3  -10.7    6.4
H     3.8    1.0  -12.3
I     0.4   12.9   -1.3
H   -11.2    1.1    6.3
H   -10.4    6.9   -3.7
I    -9.5   -5.1   -7.2
H    -8.7    9.2   -2.9
C    10.2    7.3   -3.4
H   -11.2    6.1    2.6
I     2.9   12.5    2.1
P     7.3   -3.0   10.4
C     2.7   11.4    5.7
H   -11.4   -5.8    2.6
H    -4.7  -10.2   -6.6
H     2.3   11.9    4.8
I   -12.0    4.3   -3.0
H     1.9  -12.0    4.8
P    -7.4   -3.0   10.4
H     1.8  -10.9    7.0
I    -7.1    3.2   10.5
H   -11.7    4.3    4.1
