         400
 sphere cut out from bulk 
I     1.3    0.2   -1.3
I    -1.1   -0.0    2.1
P    -1.1    2.2   -0.3
P     1.3   -1.9    1.1
I    -1.1   -3.5   -0.3
I    -3.6    0.2   -1.3
I     1.3    3.7    1.0
P    -3.6   -2.0    1.1
I     3.8   -0.0    2.1
P     3.8    2.2   -0.3
H     0.3    1.1   -4.3
H     0.6   -3.8   -2.6
I    -1.1    3.6   -3.0
H     2.1    1.3   -4.4
H     2.2   -4.0   -2.2
I     3.8   -3.6   -0.3
C     1.1    1.4   -4.9
I     1.3   -3.4    3.8
N     1.5   -4.1   -3.0
I    -3.6    3.8    0.9
H    -1.8   -0.2    5.0
H    -3.9   -0.1   -3.7
H     1.7   -3.5   -3.8
H    -1.1    4.7    2.5
H    -0.4   -2.2    5.2
H     3.7    0.2    4.5
H     1.0    2.5   -5.2
H    -3.1   -0.8   -5.0
H    -0.4    0.1    6.0
I     3.8    3.6   -3.1
H    -3.0    1.7   -5.1
H     1.3   -0.4   -5.9
C    -1.3   -0.4    5.9
N    -3.9   -0.2   -4.8
I    -1.5   -2.7   -5.4
H    -0.4    4.0    4.7
H    -3.1   -5.2   -1.7
I    -3.6   -3.5    3.8
N     1.1    0.6   -6.2
N    -1.1   -1.9    6.0
I     6.2    0.2   -1.3
I    -6.1   -0.0    2.1
H     1.2    5.8   -2.5
C    -1.2    5.4    3.3
P    -6.1    2.2   -0.3
H    -2.1    4.0    4.7
H     2.8    0.9    5.8
H     2.9    4.4    3.9
H    -1.9   -2.4    5.8
N    -1.2    4.6    4.6
C     1.4   -5.6   -3.4
P     6.3   -2.0    1.1
N     3.7    0.3    5.6
H     0.3    0.7   -6.7
C    -3.9    1.2   -5.4
H    -2.6   -4.7   -4.1
H     1.2   -6.2   -2.5
H    -0.3   -6.0    3.4
H     2.8   -1.5    6.1
I     1.2    2.6    6.2
I     3.3   -2.3   -5.6
H    -0.3    6.0    3.4
H     3.8    5.2    2.6
H    -4.8   -0.7   -5.0
H     6.0   -0.1   -3.7
H     0.6   -5.7   -4.1
H    -4.6   -4.7   -2.6
I    -6.1   -3.6   -0.3
H    -2.0   -0.2    6.8
C    -3.8   -5.5   -2.5
H    -2.1   -6.0    3.2
H     1.9    0.9   -6.8
H    -2.4    5.6   -3.7
H    -2.1    6.0    3.2
H    -4.7    1.7   -5.1
H     5.1   -0.7   -5.0
H    -0.6   -2.2    6.9
C     3.8    5.0    3.6
H     2.9   -5.2    4.2
H    -4.2    5.6   -2.2
I     6.2    3.8    0.9
H     2.4   -5.8   -3.8
C     3.7   -1.0    6.3
H     4.5    0.9    5.8
N    -3.1   -5.6   -3.8
C     1.4    6.4   -3.4
H     5.1    1.7   -5.1
C    -1.2   -6.6    3.3
H     4.7    4.4    3.9
H     5.3   -4.7   -2.6
H     0.6    6.3   -4.1
H    -3.9    1.1   -6.5
N     5.9   -0.2   -4.8
H     2.4    6.2   -3.8
H    -6.2    0.2    4.5
H    -3.0    6.8   -1.7
H    -1.3    5.3    5.4
I    -6.1    3.6   -3.1
I    -3.7    2.6    6.2
H    -2.4   -6.4   -3.7
H     4.6   -1.5    6.1
H    -1.1   -7.3    2.5
H    -5.2    4.4    3.9
C    -3.8    6.5   -2.5
H    -5.4    0.9    5.8
H    -4.2   -6.4   -2.2
N    -3.1    6.4   -3.8
H     4.6   -5.2    4.2
I     6.3   -3.5    3.8
C     6.0    1.2   -5.4
H     3.8   -6.8    2.6
N     3.8   -5.8    4.4
H    -5.3   -1.5    6.1
H     5.7    5.6   -2.2
H     3.7   -0.7    7.4
H    -3.7   -5.9   -4.6
N    -6.2    0.3    5.6
H    -6.1    5.2    2.6
I     1.3   -8.3    1.0
H     6.7   -0.8   -5.0
H    -3.7    6.1   -4.6
H    -5.3   -5.2    4.2
I    -1.1    8.5   -0.3
N     3.8    6.2    4.4
C     6.1   -5.5   -2.5
N     1.5    7.9   -3.0
H     3.0    6.8    4.2
H     2.2    8.0   -2.2
H     0.6    8.2   -2.6
I    -1.4    2.2   -8.2
I    -8.5    0.2   -1.3
C    -6.1    5.0    3.6
H     6.8   -5.2   -1.7
H     6.9    1.7   -5.1
H    -2.6    7.3   -4.1
H    -1.3   -6.7    5.4
C     3.8   -7.0    3.6
N    -1.3   -7.4    4.6
P    -8.6   -1.9    1.1
H     5.6   -6.4   -2.2
H     3.7   -5.9    5.5
H     6.0    1.1   -6.5
C    -6.2   -1.0    6.3
H    -7.7   -4.0   -2.2
I    -1.1   -8.4   -3.0
I     8.7   -0.0    2.1
I    -6.6   -2.3   -5.6
H    -4.5    7.3   -2.6
H     3.8    6.1    5.5
H     2.8   -7.6    3.9
P     8.7    2.2   -0.3
H    -7.8    1.3   -4.4
I    -3.6   -8.2    0.9
I     6.1    2.6    6.2
H    -7.0    4.4    3.9
H    -7.0    0.9    5.8
P    -1.5   -4.0   -8.2
I     1.0   -2.2    8.9
H     4.6    6.8    4.2
I     3.8    8.5   -0.3
I     3.5    2.2   -8.3
C     6.1    6.5   -2.5
H    -0.4   -8.0    4.7
I    -8.5    3.7    1.0
H     5.3    7.3   -2.6
I     1.0   -5.9   -7.2
H    -7.1   -1.5    6.1
H     1.7    8.5   -3.8
H     8.0   -0.2    5.0
I     8.8   -3.5   -0.3
H    -6.1   -6.8    2.6
H    -2.1   -8.0    4.7
I     1.0    6.1   -7.2
I     1.3    8.6    3.8
N    -6.1   -5.8    4.4
N     6.8   -5.6   -3.8
H     7.3   -4.7   -4.1
H    -5.2    6.8    4.2
H    -6.9   -5.2    4.2
H    -8.1   -3.5   -3.8
H     6.2   -5.9   -4.6
H    -6.2   -0.7    7.4
H     4.6   -7.6    3.9
I     3.8   -8.4   -3.1
N    -6.1    6.2    4.4
P     3.4   -4.0   -8.3
H     6.8    6.8   -1.7
N    -8.4   -4.1   -3.0
H     6.2    6.1   -4.6
P    -1.2   -9.8   -0.3
H     7.8    4.0    4.7
P     1.2    4.1    9.0
I     8.7    3.6   -3.0
I     0.9   -2.5   -9.6
I    -8.6   -3.4    3.8
I    -3.5    8.5    3.8
C    -6.1   -7.0    3.6
I    -1.3    6.0    7.9
H    -5.2   -7.6    3.9
I    -3.8   -2.2    9.0
I    -1.3   -6.0    7.9
H     7.5    5.6   -3.7
N     6.8    6.4   -3.8
C    -8.7    1.4   -4.9
H    -6.1   -5.9    5.5
H     7.9   -2.4    5.8
I    -4.0   -6.0   -7.2
I    -4.0    6.0   -7.2
H    -6.1    6.1    5.5
P     1.3   10.1    1.1
H     8.7    4.7    2.5
H    -7.5   -5.8   -3.8
I     8.3   -2.7   -5.4
H     7.8   -6.0    3.2
I     6.2   -8.2    0.9
P     1.0    3.8   -9.6
H    -9.3   -3.8   -2.6
H     7.8    6.0    3.2
C     8.5   -0.4    5.9
H    -8.5   -0.4   -5.9
H     7.9   -0.2    6.8
I    -6.1    8.5   -0.3
H    -7.5    6.2   -3.8
P     3.8   -9.8   -0.3
H     7.5   -6.4   -3.7
H    -7.9    0.9   -6.8
H    -9.5    1.1   -4.3
P    -3.8    4.0    9.0
I     3.6   -6.0    7.9
I     3.6    6.0    7.9
H    -8.9    2.5   -5.2
H    -6.9    6.8    4.2
I    -3.9   -2.5   -9.5
P    -3.6   10.0    1.1
C    -8.5   -5.6   -3.4
I    -1.2    2.5   10.3
N    -8.7    0.6   -6.2
I    -6.4    2.2   -8.3
H    -8.6    5.8   -2.5
C     8.7    5.4    3.3
N     8.8   -1.9    6.0
N     8.6    4.6    4.6
I    -6.1   -8.4   -3.1
I    -1.5    9.3   -5.4
H     1.0   -9.5   -5.2
H    -8.7   -6.2   -2.5
P    -3.9    3.7   -9.5
H     9.4   -2.2    5.2
I    -8.7    2.6    6.2
I     5.9   -6.0   -7.2
H    -7.0   -7.6    3.9
I     5.9    6.0   -7.2
H     7.3    7.3   -4.1
I     6.1   -2.2    9.0
P    -1.4   -3.8   10.4
I     3.6    2.4   10.2
H    10.2    1.1   -4.3
H    -0.4    9.8    5.2
C    -8.4    6.4   -3.4
P    -6.4   -4.0   -8.3
I   -11.0   -0.0    2.1
P   -11.0    2.2   -0.3
H     9.5    0.1    6.0
I    11.2    0.2   -1.3
I     6.3    8.5    3.8
H    -7.6    8.0   -2.2
I     1.2   -9.4    6.2
H     9.4    4.0    4.7
H    -1.9    9.6    5.8
C     8.7   -6.6    3.3
P    11.2   -1.9    1.1
H    10.4   -3.8   -2.6
H     8.6    5.3    5.4
I     5.9   -2.5   -9.5
I   -11.0   -3.5   -0.3
P     3.6   -3.7   10.3
P    -1.5    8.0   -8.2
P    -6.1   -9.8   -0.3
P     6.1    4.0    9.0
H    -9.3   -5.7   -4.1
H     8.7   -7.3    2.5
I     3.3    9.7   -5.6
H     3.5   -1.0  -11.1
H    -9.6    0.7   -6.7
H     9.3   -2.2    6.9
C     1.1  -10.6   -4.9
H     0.3  -10.9   -4.3
I    -6.2    6.0    7.9
H   -10.3   -2.2    5.2
I    -6.3   -6.0    7.9
H     9.6   -6.0    3.4
H     2.1  -10.7   -4.4
N    -1.0   10.1    6.0
P     5.9    3.7   -9.5
H     9.6    6.0    3.4
I    -3.7   -9.4    6.2
I    11.2    3.7    1.0
P     6.3   10.0    1.1
N    -8.4    7.9   -3.0
H    -3.0  -10.3   -5.1
H   -10.2    0.1    6.0
H     0.4    0.9   11.9
I    -8.5   -8.3    1.0
H    -9.2    6.3   -4.1
H    -0.7   -2.4  -11.7
H    -2.1   -0.4  -11.8
I     1.3  -11.8   -1.3
I   -11.0    3.6   -3.0
H     2.1    1.1   11.7
I     8.5    2.2   -8.2
P     3.4    8.0   -8.3
H    -0.6    9.8    6.9
H   -10.3    4.0    4.7
P     1.2   -7.9    9.0
H     7.8   -8.0    4.7
C    11.0    1.4   -4.9
H    10.1    0.7   -6.7
H     8.6   -6.7    5.4
I    -1.5    5.8  -10.6
I    -1.1   12.0    2.1
I     8.8    8.5   -0.3
H   -11.0    4.7    2.5
N     8.6   -7.4    4.6
I    -6.3    2.4   10.2
H   -10.1   -6.0    3.4
I    11.1   -3.4    3.8
H   -10.1    6.0    3.4
I    -1.2  -12.0    2.1
H    10.9    2.5   -5.2
H    -8.1    8.5   -3.8
I     1.4   12.2   -1.3
P     8.4   -4.0   -8.2
H    -4.8  -10.3   -5.1
H     2.8   10.5    6.1
I    -1.5   -6.2  -10.6
N    11.3   -4.1   -3.0
I    -3.6  -11.8   -1.3
I     8.7   -8.4   -3.0
N     1.3    0.8   12.4
H     5.1  -10.3   -5.1
H    -0.5   -0.1  -12.5
I     3.5    5.8  -10.6
H    10.5   -5.7   -4.1
N   -10.9   -1.9    6.0
I     1.0    2.4  -12.3
P     1.0   -8.2   -9.6
N    11.0    0.6   -6.2
P    -6.3   -3.7   10.3
H    -9.3    8.2   -2.6
P    -3.8   -8.0    9.0
H    11.2   -0.4   -5.9
H    -3.1   11.2   -5.0
C   -11.2   -0.4    5.9
H    11.6   -3.5   -3.8
H   -10.5   -2.2    6.9
H    -3.7    1.3   12.1
H     1.5   -0.2   12.6
C    -3.9  -10.8   -5.4
C    -1.5   -0.7  -12.6
I    -8.6    8.6    3.8
H   -11.7   -0.2    5.0
I     1.1   -5.7   11.3
C   -11.0    5.4    3.3
I     3.8   12.0    2.1
I    -8.8   -2.2    8.9
C     3.5   -1.2  -12.2
H    11.1    5.8   -2.5
I    -3.6   12.2   -1.3
I     3.8  -12.0    2.1
I     3.5   -6.2  -10.6
I     6.1   -9.4    6.2
N    -1.2   -2.1  -12.6
H    12.0    1.3   -4.4
H     2.8  -11.1    5.8
I    -1.4   -9.8   -8.2
H    -6.4   -1.0  -11.1
H     2.6   -1.8  -12.5
N   -11.1    4.6    4.6
I   -11.4   -2.7   -5.4
I    -8.9   -5.9   -7.2
H    11.1   -6.2   -2.5
H    10.5    6.3   -4.1
H    12.1   -4.0   -2.2
I    11.0    2.6    6.2
I    -8.9    6.1   -7.2
H     4.6   10.5    6.1
H    -1.8   11.8    5.0
I    -6.6    9.7   -5.6
C    11.3   -5.6   -3.4
I     1.2    6.3   11.3
N     1.1  -11.4   -6.2
H     2.7    0.7  -12.8
H    -3.9   11.9   -3.7
H     1.4   11.6   -5.9
C    -1.3   11.6    5.9
I     8.5   -6.0    7.9
I     8.5    6.0    7.9
P     8.7   -9.8   -0.3
I    -3.9    2.4  -12.3
P    -8.7    4.1    9.0
