         400
 sphere cut out from bulk 
H     2.0   -0.1    0.3
I    -1.3    0.3    1.6
P    -1.7    0.6   -1.6
I     0.9   -1.3   -2.0
N     2.9    0.1    0.9
H    -1.4   -2.3    1.5
H     1.8    0.4    2.7
H     2.1    1.9    1.7
C     2.5    0.9    2.0
H    -1.5   -3.2    0.0
H     3.3   -0.8    1.1
I     0.2    3.2   -1.6
H    -0.2   -3.4    1.0
N    -1.2   -3.2    1.0
H     3.6    0.6    0.3
H    -1.7    3.7    1.2
I    -3.5   -2.0   -1.5
H     3.4    1.1    2.6
I     2.3   -3.5    1.6
H     2.3    1.3   -3.8
I    -4.2    2.4   -1.1
C    -1.9   -4.3    1.7
P     2.8   -3.9   -1.6
P    -1.8    0.6    4.8
H     3.6    0.1   -3.8
C    -1.9    4.6    1.7
I    -2.1    0.8   -4.8
H    -3.0   -4.1    1.7
I     4.7    2.4   -1.1
H    -1.5   -4.4    2.7
H    -5.4    0.6    0.3
C     3.0    0.8   -4.4
H    -1.8   -2.6   -4.4
H     1.7   -0.6   -5.2
H    -1.5    4.5    2.7
H    -1.9   -4.0   -3.3
I     0.8    2.6    4.9
H    -0.1    5.5    1.0
I     0.0   -2.0    5.3
H    -1.7   -5.3    1.2
H    -0.5   -3.9   -4.3
H    -5.7   -0.8    1.1
C    -1.5   -3.7   -4.3
H    -2.9    4.8    1.7
N    -1.1    5.7    1.0
I     5.4   -2.0   -1.5
H    -1.5    5.8    0.0
I     0.2   -5.8   -1.6
P     2.9    5.0   -1.6
N     2.4    0.1   -5.5
N    -6.1    0.1    0.9
I     2.4    5.4    1.6
H    -5.5    1.1    2.6
H    -1.8    4.9   -3.3
H     3.7    1.6   -4.8
H     1.8    0.8   -6.1
H    -2.0    3.4   -5.2
H    -5.4    0.1   -3.8
I    -3.7    3.2    4.4
I    -4.4   -1.2    4.8
P     2.6   -3.8    4.8
I     4.5   -1.2    4.8
H    -0.4    5.1   -4.3
C    -6.4    0.9    2.0
H     3.0   -0.4   -6.1
H    -1.3    6.6    1.5
H    -6.9   -0.1    0.3
C    -1.5    5.2   -4.3
H     1.9    1.1    6.6
I     3.1   -4.2   -4.8
H    -5.2    1.6   -4.8
N    -2.2    4.5   -5.3
H    -6.8    1.9    1.7
N    -2.2   -4.5   -5.3
H     3.1   -0.1    6.6
C    -5.9    0.8   -4.4
H     6.0   -4.1    1.7
I     3.2    4.7   -4.8
P    -6.1   -3.9   -1.6
P     7.3    0.6   -1.6
I     5.2    3.2    4.4
P     2.7    5.1    4.8
H     2.0   -7.1    1.7
H    -3.2   -4.3   -5.3
H    -7.1    0.4    2.7
I    -6.6   -3.5    1.6
N     2.4    0.4    7.3
H    -3.2    4.6   -5.3
H    -1.9   -4.2   -6.3
I     7.6    0.3    1.6
H    -6.7    1.3   -3.8
I    -0.0   -2.2   -7.5
H    -1.8   -3.9    6.5
H     1.7   -0.3    7.6
H    -2.0   -5.5   -5.2
H    -1.7    6.3   -4.4
I    -3.5    6.9   -1.5
I    -4.3   -6.5   -1.1
H     6.0    4.8    1.7
I     1.0    7.6   -2.0
P    -6.1    5.0   -1.6
H     7.4   -3.2    0.0
H     7.6   -2.3    1.5
I     4.6   -6.5   -1.1
H    -1.8    4.8   -6.3
I     0.7   -6.4    4.9
I    -3.8   -5.8    4.4
I     0.7    2.3   -7.9
P    -1.9    0.4   -8.0
H     7.3    3.7    1.2
I    -2.0    1.1    8.0
I    -8.0   -1.3   -2.0
I     6.9    0.8   -4.8
H    -1.7    5.0    6.5
C     7.0   -4.3    1.7
N     7.7   -3.2    1.0
H    -5.9   -0.4   -6.1
P     7.1    0.6    4.8
N    -6.6    0.1   -5.5
C     7.1    4.6    1.7
H    -1.9    3.7    7.6
C     2.5   -8.0    2.0
I    -5.8   -4.2   -4.8
P    -1.7   -8.3   -1.6
I    -6.5    5.4    1.6
H     7.0   -4.0   -3.3
I     0.1    7.0    5.3
P    -6.3   -3.8    4.8
H     2.2   -7.6   -3.8
N    -2.1   -4.2    7.4
H     7.2   -2.6   -4.4
H    -5.8   -0.1    6.6
I    -5.7    4.7   -4.8
H     3.3    8.1    1.1
H    -1.7   -2.4    8.4
I     5.1   -5.8    4.4
H     5.7   -4.3   -5.3
I    -1.4   -8.7    1.6
H     3.4   -7.8    2.6
H    -7.3   -0.6   -5.2
I     5.5    6.9   -1.5
H     3.8    1.8    7.9
C     3.1    1.1    8.4
H     7.2   -5.3    1.2
H     7.4   -4.4    2.7
H     3.5   -8.3    0.3
N    -2.1    4.7    7.4
H     5.8    4.6   -5.3
H    -3.2   -4.1    7.5
H     2.1    8.8    0.3
H     1.7   -8.6    2.7
H     7.5    4.5    2.7
H    -0.4   -3.6    8.4
H     7.1    4.9   -3.3
H     2.0   -9.0    0.3
I     4.4   -1.5   -8.0
C    -1.5   -3.4    8.5
I    -4.5   -1.5   -8.0
C     7.4   -3.7   -4.3
N     2.8   -8.8    0.9
P     2.6   -4.1   -8.0
H     7.0    3.4   -5.2
P    -6.2    5.1    4.8
H    -2.0   -5.2    7.6
I    -8.7    3.2   -1.6
H     2.4    1.6    9.0
H    -7.1    0.8   -6.1
H     7.5    5.8    0.0
I    -1.3    9.2    1.6
H    -3.1    4.9    7.5
H     8.8   -3.4    1.0
I     3.2   -4.0    8.0
N     2.9    9.0    0.9
H     3.7   -7.4   -4.8
H    -5.1    1.8    7.9
I    -2.1   -8.1   -4.8
I    -3.8    2.9   -8.4
N     6.7   -4.5   -5.3
H     3.6    0.4    9.0
C     3.0   -8.1   -4.4
N     7.8    5.7    1.0
N     6.8    4.5   -5.3
P     2.6    4.9   -8.0
H    -7.0    1.1    6.6
N    -6.5    0.4    7.3
P    -1.9   -8.3    4.8
H    -9.1   -3.4    1.0
P    -1.6    9.6   -1.6
I     9.2    3.2   -1.6
H     1.9    9.3    2.7
I    -8.2    2.6    4.9
H    -5.6    8.1    1.1
H    -5.6   -7.8    2.6
H    -5.4   -8.3    0.3
I     3.3    5.0    8.0
H     1.7    8.4   -5.2
H    -0.3    5.3    8.4
H    -6.9   -7.1    1.7
I     0.0    6.7   -7.5
C     7.5    5.2   -4.3
I    -4.4    7.7    4.8
I     9.8   -1.3   -2.0
I     4.6    7.7    4.8
H     3.6    9.6    0.3
H     7.6    6.6    1.5
C    -1.4    5.5    8.5
I     5.1    2.9   -8.4
H     3.5   -8.8   -3.8
H     6.9   -5.5   -5.2
C    -5.8    1.1    8.4
H     1.7    0.1  -10.1
H    -5.3   -7.4   -4.8
H     5.8   -4.1    7.5
H     8.5   -3.9   -4.3
I     0.6   -6.6   -7.9
H     7.1   -4.2   -6.3
H     3.2   -9.8    1.1
H     1.8   -8.1   -6.1
H    -1.8   -3.8    9.5
I   -10.3    0.3    1.6
C     2.6    9.9    2.0
H    -5.3    0.4    9.0
H     7.1   -3.9    6.5
H     8.8    5.5    1.0
H     3.6    9.0   -3.8
I     0.8  -10.2   -2.0
H     1.8   -7.9    6.6
H    -7.2   -0.3    7.6
C    -6.5   -8.0    2.0
I    -8.9   -2.0    5.3
H     7.2    6.3   -4.4
I    -5.7   -4.0    8.0
I    -8.8   -5.8   -1.6
I     9.0   -2.0    5.3
H     7.1    4.8   -6.3
I     6.9    1.1    8.0
H    -9.0    5.5    1.0
H   -10.3   -2.3    1.5
N     2.3   -8.8   -5.5
H     5.8    4.9    7.5
P     7.0    0.4   -8.0
N   -10.1   -3.2    1.0
H     3.4    0.8  -10.2
P   -10.6    0.6   -1.6
H    -1.6    6.6    8.4
N    -6.1   -8.8    0.9
H    -6.7   -7.6   -3.8
P    -1.8    9.6    4.8
H     8.5    5.1   -4.3
I     1.0   -1.0   10.8
N    -6.0    9.0    0.9
N     2.4    9.1   -5.5
I     9.1   -5.8   -1.6
N     6.8   -4.2    7.4
H     7.2    5.0    6.5
H    -5.3    9.6    0.3
H   -10.5   -3.2    0.0
H    -1.8    5.2    9.5
H     1.6   -9.5   -5.2
H     7.0    3.7    7.6
H     3.5   10.1    2.6
H    11.0   -0.1    0.3
C    -6.0   -8.1   -4.4
I    -5.7    5.0    8.0
H     3.1    8.6   -6.1
P    -6.4   -4.1   -8.0
H    -1.5    4.3  -10.0
C     2.5    0.7  -10.7
I    -3.9   -6.0   -8.4
H    -9.4   -3.9   -4.3
H    -5.4   -8.8   -3.8
H    10.7    0.4    2.7
I    -2.0    9.8   -4.8
P     7.2   -8.3   -1.6
H    -5.3    9.0   -3.8
H     2.2   10.8    1.7
C     3.1    9.8   -4.4
N     6.9    4.7    7.4
I     9.7    2.6    4.9
H    -6.8    8.8    0.3
H    -1.6   -4.7  -10.0
H     2.3   10.3   -3.8
I    -8.0    7.6   -2.0
H    -6.6    1.6    9.0
I    -1.4    0.0  -11.2
H   -10.6    3.7    1.2
P    -6.3    4.9   -8.0
H     3.7   -7.1    7.9
P    -1.6    0.9   11.2
H    11.0    1.9    1.7
H     7.3   -2.4    8.4
H    -5.7   -9.8    1.1
H     2.0    1.6  -11.1
I    -2.1   -7.8    8.0
H    -7.0   -9.0    0.3
H    -1.4  -11.3    1.5
N     2.4   -8.5    7.3
H    -9.3    5.1   -4.3
H    -7.2   -8.6    2.7
H     3.2    8.8    6.6
I     5.1   -6.0   -8.4
I    -8.2   -6.4    4.9
H     7.0   -5.2    7.6
H     3.0   -9.3   -6.1
I     7.5   -8.7    1.6
I     6.8   -8.1   -4.8
H     3.0   -9.0    6.6
I    -8.2    2.3   -7.9
N   -10.1    5.7    1.0
H    -5.6    0.8  -10.2
I    -3.6  -11.0   -1.5
H     1.8    8.6    7.6
H     1.9    9.7   -6.1
C    11.5    0.9    2.0
I     0.3    3.4   11.2
H   -10.4    4.5    2.7
H   -10.5   -4.4    2.7
H    -1.4   -2.6  -11.3
H    -5.4   10.1    2.6
P   -10.8    0.6    4.8
H     2.3   -7.3    9.0
I    -4.4    7.5   -8.0
C   -10.9   -4.3    1.7
H    10.6   -0.6   -5.2
I     4.5    7.5   -8.0
C     7.5   -3.4    8.5
N    11.8    0.1    0.9
I     8.9   -2.2   -7.5
C   -10.8    4.6    1.7
H    -5.2   -7.1    7.9
C     3.0   -7.8    8.4
H   -10.7   -2.6   -4.4
I    -9.0   -2.2   -7.5
C   -10.5   -3.7   -4.3
P    -2.0   -8.6   -8.0
H   -10.4    5.8    0.0
P     7.1   -8.3    4.8
I    11.3   -3.5    1.6
C    -6.4    9.9    2.0
H    11.2    1.3   -3.8
H   -10.7   -5.3    1.2
I    -3.5   -1.8   11.3
H    -7.1    9.3    2.7
H   -10.8   -4.0   -3.3
I   -11.0    0.8   -4.8
C    -1.9    4.3  -11.1
I     2.3   -3.8  -11.2
I     4.4  -10.1    4.8
H    -5.8    8.6   -6.1
N     2.5    9.3    7.3
I    -4.5  -10.1    4.8
P     2.9   -3.7   11.1
H     1.7   -9.2    7.6
I     7.7    9.2    1.6
H     3.2   -1.1  -11.6
I    -0.0  -10.9    5.3
C    -2.0   -4.6  -11.1
I    -4.2   11.4   -1.1
P     7.3    9.6   -1.6
H     3.8   10.5   -4.8
H     2.0   10.0    6.6
H    -7.2    8.4   -5.2
H    -1.7    3.4  -11.6
C    -5.8    9.8   -4.4
H    -1.6  -12.1    0.0
I     0.3   12.1   -1.6
N     2.8   -0.2  -11.9
H   -10.2    6.6    1.5
H    12.2   -0.8    1.1
I     5.3  -11.0   -1.5
N    -1.3  -12.2    1.0
H   -10.8    4.9   -3.3
H    -3.0   -4.4  -11.1
H    -0.2   -3.7  -11.8
H    -3.0    4.5  -11.1
N    -1.3   -3.5  -11.8
N    -6.6   -8.8   -5.5
I     4.8   11.4   -1.1
P    -1.8    9.3   -8.0
H    -0.2  -12.4    1.0
C   -10.4    5.2   -4.3
H    10.8    0.8   -6.1
H    -7.2    0.1  -10.1
H     7.1   -3.8    9.5
I     0.2   -5.5   11.2
I    -8.8    7.0    5.3
H    -7.2   -8.1   -6.1
N    -6.5    9.1   -5.5
H    -5.8    8.8    6.6
P    11.8   -3.9   -1.6
H    12.5    0.6    0.3
H    -7.1   -7.9    6.6
H    -1.8  -11.6   -4.4
I     0.8   11.5    4.9
H     8.5   -3.6    8.4
C    -6.5    0.7  -10.7
I     2.3    5.2  -11.2
I     9.6   -6.4    4.9
N    11.3    0.1   -5.5
H   -10.9    3.4   -5.2
