         400
 sphere cut out from bulk 
H     0.5    0.4   -0.7
C     0.2    1.4   -0.6
N    -0.7    1.6    0.6
H    -1.5    0.9    0.6
H    -0.1    1.4    1.5
H    -0.5    1.6   -1.5
H     1.0    2.1   -0.6
H    -0.9   -2.4    0.1
H    -1.0    2.5    0.6
H     0.8   -3.1    0.1
I     2.9   -1.4   -0.3
C    -0.3   -3.3   -0.1
I    -3.3   -0.7    0.3
H    -0.3   -3.5   -1.2
I     1.3    0.8    3.5
I    -0.6    1.7   -4.2
N    -0.7   -4.5    0.7
H    -0.6   -4.3    1.7
P     4.3    0.4    2.0
I     3.7    3.1    0.2
H     2.1    2.6   -3.5
H    -1.7   -4.7    0.4
I    -2.0   -2.9   -3.6
I    -2.0    4.8    0.4
H    -0.1   -5.3    0.4
H     0.8    3.0    4.3
H    -0.8    4.4    3.0
H     4.1    3.0   -2.2
I    -0.0   -3.8    4.0
P    -4.9   -2.4   -2.0
C     2.9    3.3   -3.9
H     4.5    2.0   -3.5
H    -1.6    3.7    4.5
N     4.2    3.0   -3.2
P     1.6   -1.5    5.7
C    -0.8    4.4    4.1
N     0.5    4.0    4.7
I    -4.3    2.6    3.7
H     2.6    4.4   -3.6
P    -2.2   -0.5   -5.8
P     5.4   -2.4   -2.0
P    -5.9    0.4    2.0
I     4.5   -1.9    4.2
H     1.2    4.7    4.4
H    -2.8   -4.6    3.7
I    -4.1   -5.2   -0.2
I    -5.1   -0.2   -4.3
H     3.0    3.3   -5.0
I     5.2   -0.2   -4.3
H    -1.3   -5.1   -4.3
H     0.2   -6.3   -2.9
I     6.9   -0.7    0.3
H     0.5    4.0    5.7
H    -5.8    2.0   -3.5
H     4.9    3.7   -3.5
I     3.8   -4.7   -3.6
H    -1.0    5.4    4.5
I     1.5   -7.0   -0.3
H     1.1   -5.7   -4.3
I    -6.5    3.1    0.2
I     0.3    6.2   -3.6
H    -4.6   -5.1    2.2
H    -6.2    3.0   -2.2
H    -5.3    3.7   -3.5
H    -5.1   -4.1    3.5
I    -5.8   -1.9    4.2
H     5.1   -4.1    3.5
P    -1.3    4.4   -5.9
P    -4.9    5.3    1.9
H    -4.0    1.8    6.0
I    -7.3   -1.4   -0.3
I     6.0    2.6    3.7
N    -6.1    3.0   -3.2
C     0.3   -6.4   -4.0
I    -1.0   -0.5    7.4
C    -3.6   -5.4    4.0
N    -1.0   -6.0   -4.6
N    -4.8   -5.0    3.2
H     3.6    0.7   -6.7
P    -2.2    7.1   -1.8
I    -3.7    5.4   -4.1
P     5.3    5.3    1.9
I     0.2   -1.5   -7.7
H    -3.1    0.9    7.1
I     2.8    6.3    3.6
H     5.6   -5.1    2.2
I     6.1   -5.2   -0.2
H    -3.3   -6.4    3.7
N     5.4   -5.0    3.2
H     4.7   -5.7    3.5
H    -1.7   -6.7   -4.3
N    -3.9    1.6    7.0
H    -3.8   -5.3    5.1
H    -0.9   -6.1   -5.6
I    -2.9    2.2   -7.5
H     2.6    1.6   -7.9
H     2.3   -3.5   -7.3
H     0.6   -7.4   -4.3
I     3.1    0.3    7.9
C     3.5    1.0   -7.8
H     4.0   -4.7   -6.0
I     1.6    4.1   -7.4
H    -4.5   -2.7    6.9
H    -5.6   -5.7    3.5
H    -2.9    3.3    7.5
H     2.5   -0.7   -8.3
I    -6.4   -4.7   -3.6
P     0.7   -6.4    5.9
H    -4.8    1.1    7.3
H     8.8    0.9    0.6
P     4.4   -7.4   -1.8
H     6.2    1.8    6.0
I     2.2   -4.1    7.5
H    -2.5   -2.2    8.2
I    -3.4    7.1    4.2
C    -7.4    3.3   -3.9
H     0.4    8.2    3.7
I     0.0    4.0    8.1
I    -0.9   -8.2    3.6
I     3.2   -7.4    4.2
I    -5.0    7.6   -0.3
C    -3.7    2.8    7.8
H     5.4    1.1    7.3
H     1.9    7.9   -4.3
I     5.2    7.6   -0.3
H     2.0   -5.3   -7.3
N     3.3   -0.3   -8.6
H    -8.1    2.6   -3.5
C     2.7   -4.5   -7.6
H     4.4    1.5   -8.1
H     4.2    7.2   -4.3
H    -7.2    3.3   -5.0
I    -4.0   -2.3   -8.2
H     5.7   -2.7    6.9
I     6.5    5.4   -4.1
I    -0.4    9.4   -0.2
N     4.0   -4.7   -7.1
I     8.2   -2.9   -3.6
H    -6.6    0.7   -6.7
C     6.7   -5.4    4.0
H    -9.2    2.1   -0.6
H     4.2   -0.9   -8.5
H    -7.6    4.4   -3.6
H     3.8    8.2   -2.9
H     7.5   -4.6    3.7
I     8.2    4.8    0.4
C    -4.6   -2.7    8.0
H     9.2    2.5    0.6
H    -2.9   -3.9    8.3
N     6.3    1.6    7.0
I    -8.9    0.8    3.5
N    -3.2   -2.9    8.5
P    -5.8   -7.4   -1.8
P     1.7   -9.3    1.9
H    -4.6    3.4    7.7
H     4.7   -4.0   -7.4
H     9.4   -2.4    0.1
I    -3.4   -8.3   -3.6
H    -1.9    8.9    3.5
N     9.6    1.6    0.6
H     6.5   -5.3    5.1
H    -4.9   -1.7    8.3
H     8.6   -4.7    0.4
H    -9.8    0.4   -0.7
H    -1.0    9.5    2.2
I    -2.2   -6.0    7.5
H    -6.2   -4.7   -6.0
P     8.0   -0.5   -5.8
C     4.0    8.2   -4.0
H    -3.6    2.5    8.9
H     3.6    9.3    0.4
H    -9.4   -3.1    0.1
P     0.8    1.3    9.8
H     5.3   -1.7    8.3
H     9.8    1.6   -1.5
C     0.1    9.2    4.0
H     2.0    9.8    0.4
N     2.7    8.5   -4.6
H    -5.5   -4.0   -7.4
I    -0.8   -6.0   -8.1
H    -5.8    1.5   -8.1
H     3.2    0.0   -9.6
H     7.1    0.9    7.1
H     5.6    3.4    7.7
C     5.7   -2.7    8.0
N    -1.1    9.5    3.2
H     7.0   -6.4    3.7
C   -10.1    1.4   -0.6
H     2.8   -4.6   -8.7
H     4.4   -5.7   -7.3
H    -6.0    7.2   -4.3
C    -6.7    1.0   -7.8
H     5.0   -3.5    8.3
H    10.1    1.4    1.5
I    -7.4    6.3    3.6
H    -2.5    2.2   -9.9
H     8.7    3.7    4.5
H    -5.2   -3.5    8.3
I     2.9   -9.2   -4.1
H    -6.1   -0.9   -8.5
P    -8.7   -1.5    5.7
C    10.4    1.4   -0.6
C    10.0   -3.3   -0.1
N    -6.2   -4.7   -7.1
N     3.0   10.1    0.7
H    -3.3   -2.9    9.6
H   -10.3    1.4    1.5
H    -0.1    9.2    5.1
P    -1.4   -3.3   -9.9
I     6.3   -2.3   -8.2
C     6.5    2.8    7.8
N     9.5   -4.5    0.7
H     2.7    8.5   -5.6
H     9.9   -3.5   -1.2
H     0.9    9.9    3.7
I    -1.5    6.7   -8.1
I    -7.1    0.3    7.9
I     9.7    1.7   -4.2
H     2.4    9.5   -4.3
I     6.8    7.1    4.2
H     9.7   -4.3    1.7
I     7.3    2.2   -7.5
H    10.7    0.4   -0.7
I     4.6   -9.7    0.4
H    -6.4    8.2   -2.9
I    -2.8    9.8   -3.6
H    -9.5    3.0    4.3
H     3.1   10.3    1.7
H    -1.1  -10.2   -3.6
H     9.5    4.4    3.0
P     4.3    8.1    5.9
P     8.1    7.1   -1.8
H   -10.7    1.6   -1.5
H     4.7    8.9   -4.3
H    -5.8   -5.7   -7.3
C   -10.5   -3.3   -0.1
N    -6.9   -0.3   -8.6
H     2.1   -4.2   10.0
H    -9.0    4.7    4.4
N   -10.9    1.6    0.6
H     7.4    3.3    7.5
C    -6.3    8.2   -4.0
I     4.6    5.9    8.2
H    -7.6    1.6   -7.9
I    -7.1   -7.4    4.2
H    -2.4   -9.9    4.4
I    -8.7   -7.0   -0.3
H     8.9   -5.1   -4.3
H    -1.5   10.5    3.5
C     9.4    4.4    4.1
H   -10.6   -3.5   -1.2
H    -4.7   -9.1    4.5
I    -5.7   -9.7    0.4
H    -5.5    8.9   -4.3
H    -7.9   -3.5   -7.3
H     6.6    2.5    8.9
H   -11.1   -2.4    0.1
H    -7.8   -0.7   -8.3
I     6.9   -8.3   -3.6
H    -6.7    9.3    0.4
I     1.5    8.5    7.5
N    -2.5    2.2  -10.9
N     7.0   -2.9    8.5
H    11.3    2.1   -0.6
H    11.0   -3.1    0.1
H    10.2   -5.3    0.4
H    -4.4  -10.1    3.0
H     7.7   -2.2    8.2
H     1.2  -10.9   -3.5
I     0.1  -11.5    0.2
N    -9.7    4.0    4.7
H    -2.2    1.2  -11.3
I    -5.7    5.9    8.2
H     3.3   11.0   -1.2
H   -11.3    2.5    0.6
P     9.0    4.4   -5.9
H     9.2    5.4    4.5
H    -9.2   -5.7   -4.3
H     5.5   -9.1    4.5
H   -10.3   -5.3    0.4
I    10.2   -3.8    4.0
P     1.4    6.3   -9.7
P    -5.9    8.1    5.9
C    -7.6   -4.5   -7.6
I   -10.3   -3.8    4.0
P     1.7    6.2    9.7
H     8.5   -6.7   -4.3
I    -2.1    1.7   11.3
H    -2.2    8.9   -7.3
I   -10.8    1.7   -4.2
H    -1.7    2.8  -11.2
H     7.4   -3.9    8.3
H     0.4  -11.5   -2.2
H   -10.8   -4.3    1.7
C     3.4   11.3   -0.1
I    -8.0   -4.1    7.5
H   -11.7    0.9    0.6
H    -2.6    9.8   -6.0
N   -10.9   -4.5    0.7
C    -4.5  -10.1    4.1
H     1.7   -3.2   11.3
H    -7.0    0.0   -9.6
I     9.3   -0.5    7.4
C    -0.8  -11.2   -3.9
I     0.9   -8.7    8.2
N     2.0   -4.2   11.0
N     9.3   -6.0   -4.6
N    -3.2  -10.6    4.7
H    -9.8    4.0    5.7
N     0.5  -11.6   -3.2
I     1.5   -3.7  -11.4
H     5.8  -10.1    3.0
I     3.6   10.8    4.0
I     0.9   -1.1   12.0
I    11.6    0.8    3.5
I    -8.7    4.1   -7.4
I     2.9    8.6   -8.1
H    -4.5    1.9  -11.1
I     2.4    3.5   11.4
H    -8.2   -5.3   -7.3
H     7.0   -2.9    9.6
H    11.0    3.0    4.3
H    -8.3    7.9   -4.3
H   -10.1   -6.3   -2.9
H   -11.0    4.4    3.0
I    -9.9    6.2   -3.6
I    -1.6   -1.0  -12.1
H     4.4   11.5    0.1
N    -7.6    8.5   -4.6
I     3.0    0.8  -11.9
H    -4.0    3.6  -11.1
I     1.6   11.7   -3.6
H    -0.6  -11.3   -5.0
P    -1.2   12.1   -2.0
N    -2.5    9.8   -7.1
C    -3.8    2.6  -11.5
H    -7.5   -4.6   -8.7
H     1.2   -4.9   11.3
N    10.7    4.0    4.7
C     5.8  -10.1    4.1
I     5.1   -7.9   -8.1
H    -3.2  -10.6    5.7
H     2.8   12.1    0.1
I    -5.2   -7.9   -8.1
N    -7.3   10.1    0.7
C    -9.9   -6.4   -4.0
H     9.3   -6.1   -5.6
I    -7.4   -9.2   -4.1
I     8.0   -6.0    7.5
H    10.4   -6.3   -2.9
H    -1.5  -11.9   -3.5
H    -4.3    5.1   10.6
C   -11.1    4.4    4.1
H     4.0   -3.8   11.3
H    -4.6    9.3   -7.3
H    -7.1   10.3    1.7
H     5.7    1.9  -11.1
H    -2.9  -11.5    4.3
H    -7.5    8.5   -5.6
H     8.3    8.9    3.5
I   -10.1   -1.5   -7.7
I     2.3  -12.0    3.7
P    -4.9  -10.2   -5.9
H     7.7    2.2   -9.9
I    10.5    6.2   -3.6
H     5.0  -10.9    4.5
H    -2.6  -12.5   -0.6
H    10.7    4.0    5.7
P    -8.6   -9.3    1.9
I    -0.2    4.5  -12.0
I    -3.5   -2.9   12.0
H   -11.9   -4.7    0.4
H    -5.8   11.5    0.1
H    -8.3    9.8    0.4
H    -5.2  -10.9    4.5
I     7.5    9.8   -3.6
H    -9.7   -7.4   -4.3
H    -4.7  -12.0    0.6
P     5.3  -10.2   -5.9
C     3.3   -4.6   11.6
C    10.5   -6.4   -4.0
P    -2.3   -8.3   -9.7
P    -9.6   -6.4    5.9
I     9.4   -8.2    3.6
P    -1.9   -8.4    9.7
H    -1.8   10.5   -7.4
I    10.4   -1.5   -7.7
H     0.8  -12.5   -3.5
I    -2.1  -10.5   -7.4
H    -2.8    3.9   12.1
H    -7.9    9.5   -4.3
H     5.7    9.3   -7.3
H    -6.9   11.0   -1.2
I   -12.3   -2.9   -3.6
H    12.4    2.6   -3.5
H     3.5   -5.6   11.3
H    11.5    4.7    4.4
I   -12.2    4.8    0.4
H   -11.8    3.7    4.5
C    -6.8   11.3   -0.1
