         400
 sphere cut out from bulk 
P     0.0    1.2    0.1
I     1.8   -1.4    0.5
I    -2.7   -0.7   -0.3
H     0.3   -2.0   -2.4
I     0.4    1.1   -3.1
H     0.1   -2.6    2.0
I    -0.6    1.3    3.2
C    -0.3   -2.7   -2.8
I     2.6    3.1    0.5
H    -3.3    0.7   -2.3
H    -0.5   -3.5   -2.1
H    -1.2   -2.3   -3.2
N    -0.4   -3.4    2.5
I    -1.9    3.8   -0.2
H    -1.3   -3.0    2.8
H    -3.9    0.4    1.8
H    -0.7   -4.1    1.7
H    -3.2    1.5    2.8
H     3.1    0.2    3.3
H     3.4    0.8   -3.1
H    -2.9    2.1   -3.2
N    -3.5    1.3   -3.2
N    -4.1    1.1    2.5
H     3.8    2.3   -2.3
H     4.2    1.9    2.1
H    -3.3    0.6   -4.0
N     0.4   -3.4   -4.0
H     5.0    0.4    1.8
H    -0.7    5.0    1.7
C     0.3   -4.0    3.5
C     4.0    1.7   -3.2
H     1.3   -3.7   -3.6
H     0.7   -2.7   -4.7
H     0.6   -3.3    4.3
H    -4.7    1.9    2.1
P     4.4   -3.4    0.1
C     4.1    0.5    3.7
N     4.8    1.1    2.5
H     1.3   -4.4    3.1
I    -1.9   -5.3   -0.2
P    -4.6   -3.4    0.1
H     1.2    4.6    3.1
H    -0.3    4.2    4.0
H    -4.2   -0.3    4.1
H    -0.5    5.5   -2.1
I    -3.9   -3.2    3.2
H     3.8    2.2   -4.1
H    -0.1   -4.1   -4.4
H     3.9    1.3    4.4
H    -5.1    2.3   -2.3
C    -4.9    1.7   -3.2
C    -4.8    0.5    3.7
I     3.9   -3.5   -3.1
H     5.7    0.7   -2.3
C     0.3    5.0    3.5
N    -0.5    5.7    2.5
H     4.7   -0.3    4.1
H    -0.3   -4.8    4.0
I     6.3   -0.7   -0.3
I    -2.5   -0.8   -5.8
P     0.0    1.1   -6.3
N     5.4    1.3   -3.2
H    -5.5    0.8   -3.1
P    -0.0    1.1    6.4
I     2.6   -6.0    0.5
I     1.9   -1.4    6.1
H     5.7    1.5    2.8
H     1.3    5.3   -3.6
H    -0.2    5.0   -4.4
H    -5.8    0.2    3.3
H     0.1    6.4    2.0
I     5.0   -3.2    3.2
H    -5.0    1.3    4.4
H    -1.4    6.1    2.8
I    -5.0   -3.5   -3.1
C    -0.3    6.3   -2.8
H    -5.1    2.2   -4.1
N     0.4    5.7   -4.0
H     5.7    0.6   -4.0
I     1.9   -1.4   -6.6
I    -6.4    3.1    0.5
I    -1.9    3.7   -5.8
P     4.3    5.7    0.1
H     6.1    2.1   -3.2
H     0.5    5.8    4.3
I     2.4    3.1    6.1
I    -7.1   -1.4    0.5
P    -4.6    5.7    0.1
I    -2.6   -0.9    6.8
I     3.9    5.5   -3.1
H     0.3    7.1   -2.4
H    -1.3    6.7   -3.2
I     2.5    3.2   -6.6
I    -4.0    5.8    3.2
I     1.8    7.6    0.5
P     0.1   -7.9    0.1
H     0.6    6.4   -4.7
I     7.0    3.8   -0.2
I    -2.0    3.7    6.9
I    -5.1    5.5   -3.1
H     3.8   -6.8   -2.3
I    -1.9   -5.4   -5.8
H    -2.9   -7.0   -3.2
I     5.0    5.8    3.2
P    -4.4   -3.4   -6.3
H     0.6   -2.7    8.0
I    -0.6   -7.8    3.2
P     4.5   -3.4   -6.3
P    -4.5   -3.4    6.4
P     4.5   -3.4    6.4
I     0.4   -8.0   -3.1
H     4.3   -7.2    2.1
H     7.6   -3.0    2.8
H     7.7   -2.3   -3.2
H    -3.2   -7.6    2.8
I     6.4   -0.8   -5.8
I    -6.4   -6.0    0.5
I    -2.7    8.3   -0.3
H    -5.1   -6.8   -2.3
I     7.0   -5.3   -0.2
H    -4.7   -7.2    2.1
I     2.5   -5.9    6.1
H     3.9   -6.9   -4.1
I    -2.0   -5.4    6.9
P    -8.9    1.2    0.1
I     8.3    1.3    3.2
H     0.6   -3.2   -8.4
C     4.0   -7.4   -3.2
P     9.0    1.2    0.1
N    -3.5   -7.8   -3.2
H    -8.6   -2.0   -2.4
I    -8.6    1.1   -3.1
I     2.5   -5.9   -6.6
H    -7.6   -3.7   -3.6
H    -3.2   -8.3   -2.3
H    -0.2   -4.1    8.3
N    -4.1   -7.9    2.5
H     4.0    1.3   -8.3
H    -3.3    0.6    8.7
H     8.2   -4.1    1.7
N     0.4   -3.4    8.7
H     8.4   -3.5   -2.1
I     6.4   -0.9    6.8
H    -7.7   -4.4    3.1
H    -8.8   -2.6    2.0
C    -4.9   -7.4   -3.2
I    -6.5    3.1    6.1
I    -7.1   -1.4    6.1
N     8.5   -3.4    2.5
H    -5.1   -6.9   -4.1
C     8.6   -2.7   -2.8
H    -7.7    4.6    3.1
H     3.4   -8.3   -3.1
P    -4.4    5.7   -6.3
I    -0.6    1.3   -9.4
H    -4.2   -0.2   -8.6
P     4.5    5.7   -6.3
H     3.8    2.2    8.6
P     4.4    5.6    6.4
N     4.8   -7.9    2.5
H    -0.2    4.9    8.3
P    -4.5    5.6    6.4
H     9.1   -2.6    2.0
H    -3.9   -8.6    1.8
I     0.3    1.1    9.6
H    -0.2    4.3   -8.7
I    -7.0   -1.4   -6.6
H    -4.9    1.3   -8.3
H     4.0   -7.7    4.4
H     9.3   -2.0   -2.4
I    -6.5    3.2   -6.6
H     8.2    5.0    1.7
H     6.1   -7.0   -3.2
I     7.0    3.7   -5.8
H     4.8   -0.2   -8.6
H    -1.3   -2.3    9.5
H    -3.2   -8.4   -4.0
H    -8.3   -2.7   -4.7
H     1.3   -3.8    9.0
H     3.2    0.2   -9.3
I     9.3    1.1   -3.1
H     5.8   -7.6    2.8
H    -0.2   -4.8   -8.7
C     4.2    0.6   -9.0
H    -8.4   -3.3    4.3
I     1.8    7.6    6.1
N    -8.5   -3.4   -4.0
C     0.4   -4.0   -9.1
H    -7.6    5.3   -3.6
H     3.2   -8.9    3.3
N     5.5   -7.8   -3.2
C    -9.2   -2.7   -2.8
H     7.6    6.1    2.8
H    -2.9    2.1    9.4
H     3.3    0.7    9.5
P     0.0   -7.9   -6.3
C    -8.6   -4.0    3.5
I    -2.6   -9.8   -0.3
C     4.1   -8.5    3.7
H     5.0   -8.6    1.8
P    -0.0   -7.9    6.4
I    -9.6    1.3    3.2
H    -5.0   -7.7    4.4
C    -4.8    0.6   -9.0
H     0.6    5.8   -8.4
N    -3.6    1.2    9.5
C    -0.4   -2.8    9.8
H    -5.2    2.2    8.6
H     0.6    6.4    8.0
I     1.9    7.6   -6.6
N    -9.4   -3.4    2.5
P     0.0   10.3    0.1
H     3.1    9.2    3.3
H     8.4    5.5   -2.1
H    -9.4   -3.5   -2.1
H     5.7   -8.3   -2.3
H     5.6    0.6    8.7
H    -1.3   -3.0   -9.9
I    -2.5    8.2   -5.8
C     3.9    1.6    9.5
N     0.3    5.7    8.7
H     8.6    4.2    4.0
I     6.2    8.3   -0.3
H    -4.0    9.5    1.8
C     0.4    5.1   -9.1
I     7.0    3.7    6.9
C    -4.8   -8.5    3.7
H    -5.5   -8.3   -3.1
H     0.3   -2.0   10.3
I    -7.2    7.6    0.5
H    -3.1    1.5   -9.9
N     8.5    5.7    2.5
H     1.2    5.3    9.0
H    -3.3    9.8   -2.3
I     7.0   -5.4   -5.8
H    -9.6   -4.1    1.7
H    -4.3    8.8    4.1
C    -8.6    5.0    3.5
H     1.3   -4.4   -9.5
I     0.3   10.2   -3.1
I    -6.5   -5.9    6.1
H     8.8   -4.1   -4.4
I     1.8  -10.5    0.5
H     8.7   -4.8    4.0
I    -3.9   -3.2   -9.4
H     7.7    6.7   -3.2
H     1.3    4.6   -9.5
N     9.4   -3.4   -4.0
C     9.3   -4.0    3.5
N    -0.4   -3.4  -10.2
H     4.7    8.8    4.1
I    -0.7   10.3    3.2
H     3.4    9.8   -3.1
H     5.0    9.5    1.8
C    -5.0    1.6    9.5
I    10.7   -1.4    0.5
H    -9.1   -4.1   -4.4
H     5.7   -8.4   -4.0
H   -10.2   -2.3   -3.2
H    -9.2    4.2    4.0
I     3.8   -3.6    9.6
H    -3.3    0.7   10.4
H     9.5   -3.3    4.3
I    -6.4   -5.9   -6.6
H    -5.7    0.2   -9.3
P    -8.9    1.1   -6.3
P     8.9    1.1    6.4
H    -3.3    9.7   -4.0
H     0.2   -2.6  -10.7
N     5.4    1.2    9.5
H     8.8    5.0   -4.4
I    -2.6    8.2    6.8
N    -8.5    5.7   -4.0
H    -4.2   -9.3    4.1
H     9.6   -2.7   -4.7
N    -4.1    1.1  -10.2
P     9.0    1.1   -6.3
H    -9.7    5.0    1.7
C     8.6    6.3   -2.8
C     4.1    9.6    3.7
H   -10.3   -3.0    2.8
H    -8.4    5.8    4.3
P    -9.0    1.1    6.4
H    -5.6    0.7    9.5
C     9.3    5.0    3.5
H    -8.8    6.4    2.0
H    -5.8   -8.9    3.3
H    -9.2   -4.8    4.0
H    -9.5    5.5   -2.1
I     7.0   -5.4    6.9
H    -0.6   -3.5   10.6
I     5.1   -3.2   -9.4
H     4.7   -9.3    4.1
H     3.7    2.3   10.3
N    -9.4    5.7    2.5
H     9.0    6.4    2.0
H    -9.1    5.0   -4.4
H     0.4  -11.0   -2.4
N    -4.2   10.2    2.5
N     4.9    1.1  -10.2
N    -3.5   10.3   -3.2
C    -4.9    9.6    3.7
H     6.0    2.1    9.4
H    -3.2   10.6    2.8
H    -5.8    9.2    3.3
I    -5.1   -3.6    9.6
H    -8.7    7.1   -2.4
H    -8.3    6.4   -4.7
I   -10.9    3.8   -0.2
H     5.6    9.8   -2.3
N     4.8   10.2    2.5
H    10.3   -3.7   -3.6
H    10.2   -4.4    3.1
H     5.8    1.5   -9.9
H    -3.9    0.4  -10.9
C    -9.3    6.3   -2.8
H    10.2    4.6    3.1
H     3.8   -6.9    8.6
H     4.3    1.9  -10.6
N     9.3    5.7   -4.0
I     6.3   -9.8   -0.3
I   -11.6   -0.7   -0.3
H    -1.3    6.1   -9.9
I     3.8    5.5    9.6
H    -1.3    6.7    9.5
H    -0.6   -4.0  -11.0
C    -0.4    6.3    9.8
N    -0.4    5.7  -10.2
H    -5.6    9.8   -3.1
H    -4.6    1.9  -10.6
I    -2.5   -9.9   -5.8
I    -3.9    5.9   -9.4
H    -5.2    2.3   10.3
H     5.6    0.7   10.4
P    -8.9   -7.9    0.1
H     0.2  -11.7    2.0
H    -8.3   -2.7    8.0
I     8.3   -7.8    3.2
C     4.0   10.7   -3.2
H     9.2    7.1   -2.4
H    -1.2  -11.4   -3.2
H     5.6    9.7   -4.0
H     4.2   10.9    2.1
I    11.5    3.1    0.5
H     9.5    5.8    4.3
I     6.4    8.2   -5.8
H     3.9   10.4    4.4
P     9.0   -7.9    0.1
H    -2.9   11.1   -3.2
H    -0.6    5.5   10.6
P    -0.0   10.2   -6.3
H     4.0   -7.7   -8.3
P    -0.1   10.2    6.4
H     5.1    0.4  -10.9
I   -10.8   -5.3   -0.2
H    -0.7    5.0  -11.0
I    -8.5   -8.0   -3.1
N     5.4   10.3   -3.2
I    -7.1    7.6    6.1
H    -4.7   10.9    2.1
H    10.3    5.3   -3.6
H    -2.9   -7.0    9.4
H    -5.2   -6.9    8.6
C    -0.3  -11.8   -2.8
H     3.8   11.3   -2.3
I    -5.1    5.5    9.6
I     5.0    5.9   -9.4
H    -8.3   -3.2   -8.4
C    -5.0   10.7   -3.2
I    -0.5   -7.8   -9.4
I    -7.0    7.6   -6.6
I     1.9  -10.5    6.1
H   -10.3    6.1    2.8
I    -2.5   -9.9    6.8
H    -4.9   -7.7   -8.3
H     5.7   10.6    2.8
H    -5.0   10.4    4.4
H     7.6   -2.3    9.5
I     1.9   -1.4  -12.2
I     2.5   12.1    0.5
I     6.3    8.2    6.8
H    -7.7   -3.8    9.0
H   -11.8    2.1   -3.2
H     9.6    6.4   -4.7
H    -1.3  -12.0    2.8
H   -12.2    0.7   -2.3
H     0.2    6.4  -10.7
H     0.2    7.1   10.3
I     0.3   -8.0    9.6
I    10.8   -1.4    6.1
I     2.0  -10.5   -6.6
H    12.1    0.2    3.3
H   -12.1    1.5    2.8
H    -3.3   -8.4    8.7
H     3.8   11.3   -4.1
H     0.7  -11.7   -4.7
P     0.1    1.2  -12.6
H   -10.2    6.7   -3.2
I     9.4   -8.0   -3.1
N    -0.4  -12.4    2.5
