         400
 sphere cut out from bulk 
H     0.4   -0.9   -1.0
I    -0.7    1.3   -0.4
N     0.8   -1.8   -1.1
H     1.4   -2.0   -0.3
H    -0.0   -2.5   -0.9
H     1.0    1.9    1.9
P    -3.3   -0.3    0.7
C     1.4   -2.0   -2.5
I    -1.5   -2.6    2.0
H     2.2   -1.3   -2.6
H     2.3    0.9    2.7
C     1.7    1.8    2.8
H     0.6   -1.9   -3.2
I     2.9   -1.8    1.7
P     1.1    3.4   -1.9
H     0.3    0.9    4.0
I     3.7    1.8   -1.0
I    -3.2   -2.0   -2.0
H     1.8   -3.1   -2.5
N     0.9    1.7    4.0
H     2.3    2.7    2.8
H    -3.0    0.3   -3.6
H     0.3    2.6    4.2
I    -3.3    1.5    3.3
I     0.9    1.7   -4.6
H    -3.4    3.7    0.7
H    -1.9    4.7    1.1
P     1.1   -4.0    3.3
H     1.6    1.7    4.8
H    -2.3    2.5   -4.2
H    -3.2   -4.4    0.6
I     1.4    5.2    0.7
N    -3.7    0.9   -4.1
H    -4.3    1.4   -3.3
I    -5.2    1.8   -1.0
P     5.6   -0.3    0.7
C    -3.0    4.6    1.1
H    -2.4   -2.2    4.9
H     4.6    1.4   -3.3
I    -1.5    5.1   -2.8
C    -2.9    2.0   -4.9
I     1.5   -5.8    0.7
I     0.9   -2.0    5.8
H    -2.3    1.5   -5.6
H    -3.4    4.8    2.1
H    -3.1   -5.4   -0.7
I    -0.7   -2.5   -5.8
H    -4.3    0.3   -4.7
N    -3.5   -5.3    0.3
I     5.7   -2.0   -2.0
H    -3.7   -1.1    5.1
I    -6.0   -1.8    1.7
H    -3.2    5.6   -0.7
C    -3.0   -1.7    5.6
H     4.6    0.3   -4.7
H     5.5    3.7    0.7
I     5.6    1.5    3.3
N     5.2    0.9   -4.1
H    -1.9   -6.4    1.1
N    -3.5    5.7    0.3
I    -0.8    4.8    4.7
I    -1.5   -6.0   -2.8
H    -2.3   -1.2    6.3
P    -3.3   -3.9   -4.6
H     5.9    0.3   -3.6
H     4.4   -5.3    0.2
H    -4.5   -5.3    0.2
H    -3.7    2.6   -5.3
C    -3.0   -6.4    1.1
H    -6.6    0.9    2.7
I     3.0   -5.5   -3.5
H     4.3    5.7    0.2
I     3.0    5.6   -3.5
I     3.7   -1.7   -5.9
H     5.7   -4.4    0.6
P     1.1   -0.3   -7.2
H    -6.7   -1.3   -2.6
H    -4.6    5.7    0.2
H     5.2   -1.1    5.1
H    -3.2    6.6    0.6
H    -3.4   -6.2    2.1
C     5.9    4.6    1.1
N     5.4   -5.3    0.3
H     5.5    4.8    2.1
P    -3.4    3.4    5.9
H    -6.6    2.7    2.8
H    -7.5   -2.0   -0.3
I     2.9    1.9    6.9
I    -0.7   -6.2    4.7
N     5.4    5.7    0.3
P     1.1    7.1    3.3
N    -3.7   -2.8    6.4
H     0.3    4.6   -6.4
I    -1.5    1.4    7.6
H     0.4   -4.8   -6.3
P     1.1   -7.6   -1.9
H     5.2    2.6   -5.3
C     6.0    2.0   -4.9
H     1.6    5.4   -5.6
C    -7.2    1.8    2.8
H    -4.3   -3.3    5.8
H     5.8   -5.4   -0.7
I     3.7   -5.4    4.5
H     5.7    5.6   -0.7
I    -5.2   -1.7   -5.9
I     7.4   -2.6    2.0
I     3.7    5.6    4.5
H     4.6   -3.3    5.8
H    -3.3   -7.4    0.7
H     1.6   -5.7   -5.6
H    -7.1   -3.1   -2.5
C    -7.5   -2.0   -2.5
H     6.6    2.5   -4.2
P     5.6   -3.9   -4.6
H    -3.1   -3.4    6.9
I     8.2    1.3   -0.4
C     5.9   -1.7    5.6
H    -7.9    1.9    1.9
N    -8.1   -1.8   -1.1
H     6.5   -2.2    4.9
H     7.0    4.7    1.1
N     0.9    5.4   -6.4
H     1.7    8.0   -2.5
H    -0.1    8.5   -0.9
N     1.0   -5.6   -6.4
P     1.1   -0.2    8.5
H     5.5   -6.2    2.1
H    -8.5   -0.9   -1.0
H    -4.3   -2.3    7.1
N     5.2   -2.8    6.4
I    -1.5    1.1   -8.5
P    -7.8    3.4   -1.9
H     6.6    1.5   -5.6
I    -5.2   -5.4    4.5
H     5.7    6.6    0.6
P     5.5    3.4    5.9
C     5.9   -6.4    1.1
I    -1.6    8.4    2.0
I    -5.9   -5.5   -3.5
H     4.6   -2.3    7.1
I    -5.9    5.6   -3.5
H     0.3    6.3   -6.3
I    -5.2    5.6    4.5
H    -7.3    1.7    4.8
P    -3.3    7.1   -4.6
H     2.3   -8.3    2.8
H    -8.3   -1.9   -3.2
H     0.5    5.5    7.2
N    -8.0    1.7    4.0
H     0.4   -6.5   -6.4
I    -7.5    5.2    0.7
H     0.6   -5.6    7.2
H     6.6   -1.2    6.3
H     1.7    4.3    8.0
H     1.4    9.1   -0.3
H     5.6   -7.4    0.7
H     2.4   -4.6   -7.7
H     8.9   -2.5   -0.9
N     0.7    9.2   -1.1
H    -8.9   -2.5   -0.9
P    -7.8   -4.0    3.3
H    -3.3   -2.6   -8.3
I    -6.0    1.9    6.9
H     9.3   -0.9   -1.0
I    -8.0    1.7   -4.6
H     1.0   -9.1    1.9
H     2.3    4.6   -7.8
I     7.4    5.1   -2.8
I    -3.3    5.2   -7.1
C     1.3    9.0   -2.5
H     0.4   -8.5    4.2
I    -7.4   -5.8    0.7
I     3.0    1.9   -8.8
H     7.0   -6.4    1.1
H    -8.6    0.9    4.0
H     2.2   -5.0    7.9
C     1.8   -5.5   -7.7
H     5.8   -3.4    6.9
C     1.7    5.5   -7.7
C     1.3    5.3    8.0
I    -9.6    1.3   -0.4
H     0.6    9.2   -3.2
H    -2.3   -8.5   -4.2
C     1.7   -9.2    2.8
I    -0.7   -9.7   -0.4
I    -3.2   -5.9   -7.1
I    -3.3    9.0   -2.0
I     2.9    9.2    1.7
H    -8.6    2.6    4.2
N     9.7   -1.8   -1.1
H    -1.9   -2.7   -9.3
I     7.4   -6.0   -2.8
C     1.4   -5.7    8.0
I     3.7   -9.3   -1.0
H     9.2    0.9    4.0
P     5.6    7.1   -4.6
I    -8.0   -2.0    5.8
I     1.5   -2.1   -9.8
H     2.1    6.0    7.9
C    -3.0   -2.7   -9.3
H     1.0   -5.4   -8.5
N     0.9   -9.3    4.0
H     0.3   10.2   -1.0
P    -3.3   -7.6    5.9
H     9.5   -1.9   -3.2
H     9.9    1.9    1.9
H     1.0    5.6   -8.5
H     2.3    6.4   -7.7
H     2.1    9.7   -2.6
I    -0.7    8.5   -5.8
H    -2.4    8.8    4.9
H     5.6   -2.6   -8.3
H    -3.1   -0.7   -9.9
I     8.2   -2.5   -5.8
I     3.7   -1.9    9.5
H     2.4   -6.4   -7.8
I    -0.8   -2.4   10.1
H     9.2    2.6    4.2
H    -3.2    1.9    9.8
I     5.6    5.2   -7.1
H     0.3   -4.6    9.4
I     1.0   -9.4   -4.6
I    -3.3    5.3    8.5
H    10.3   -2.0   -0.3
I     8.1    4.8    4.7
H    -4.4    7.7    5.8
H     1.7   -6.7    8.0
P    -7.8   -0.3   -7.2
H    -3.6   -8.4   -5.3
I    -3.3   -9.5    3.3
H     4.5    7.7    5.8
I    -5.2   -9.3   -1.0
H     1.6   -9.4    4.8
H    -0.1    4.8    9.5
H    -7.3    5.4   -5.6
I     7.4    1.4    7.6
H     2.4  -10.1    2.7
C    -2.9   -9.1   -4.9
I    -3.2   -5.7    8.5
H    -3.1    7.6    6.9
N     9.8    1.7    4.0
P    10.0    3.4   -1.9
I     0.9    9.0    5.8
C    10.3   -2.0   -2.5
I    -5.9    1.9   -8.8
H    -7.3   -5.7   -5.6
I     5.7   -5.9   -7.1
I     5.6    9.0   -2.0
N     0.7    5.5    9.3
P    -3.3    3.4   -9.8
N     0.7   -5.5    9.3
I   -10.4   -2.6    2.0
N    -3.5   -1.6  -10.2
H    -3.3   -3.7   -9.7
H     0.4  -10.1    4.0
H    -6.6   -8.3    2.8
I     9.8    1.7   -4.6
I    -5.2   -1.9    9.5
P    -7.8   -7.6   -1.9
H    -7.2    8.0   -2.5
P    -7.8    7.1    3.3
H     1.5    1.7  -10.8
H    -4.2   -9.7   -3.3
H    -6.5   -4.6   -7.7
C    10.6    1.8    2.8
N    -3.8    8.3    6.4
I    -6.0    9.2    1.7
P     5.6   -7.6    5.9
H    -6.6    4.6   -7.8
H     4.7   -9.7   -3.3
P    10.0   -4.0    3.3
H     4.4   -1.6  -10.2
C    -3.0    9.3    5.6
H     5.3   -8.4   -5.3
I     8.2   -6.2    4.7
H    -4.5   -1.6  -10.2
P    -3.4   10.8    0.7
I     1.4    1.5   11.1
H    -2.3   -9.6   -5.6
I     7.4    1.1   -8.5
I     7.3    8.4    2.0
H    -0.0   -6.2    9.5
H    10.7   -3.1   -2.5
C     5.9   -2.7   -9.3
H     5.8   -0.7   -9.9
H     0.3    6.5    9.4
H    11.1   -1.3   -2.6
H     5.7    1.9    9.8
I     5.6    5.3    8.5
H     0.0    1.2  -11.4
N    -3.6    2.0   10.7
I    -9.6   -2.5   -5.8
N    -3.6  -10.1   -4.1
H    -6.7   -5.0    7.9
H     1.4    5.4   10.1
H    11.2    0.9    2.7
H    -7.2    4.3    8.0
I     5.6   -9.5    3.3
H     6.6   -8.5   -4.2
P    -7.8   -0.2    8.5
I    10.3    5.2    0.7
I     9.8   -2.0    5.8
N    -8.0    5.4   -6.4
H    -8.5   -4.8   -6.3
H    10.5    1.7    4.8
H    -8.6    4.6   -6.4
I     3.7    9.3   -5.9
N    -7.9   -5.6   -6.4
N     5.1    8.3    6.4
H     1.4   -5.6   10.1
I     5.7   -5.7    8.5
N     5.4   -1.6  -10.2
H    -3.4   -0.0   11.2
H     4.3    2.0   10.7
H    -3.1   -1.7  -11.2
H    -3.0  -10.8   -3.6
N     0.8    1.9  -11.6
I    -9.7    4.8    4.7
P     5.6    3.4   -9.8
H     5.8    7.6    6.9
H    -7.5    9.1   -0.3
P    -3.3  -11.3    0.7
H    -2.0    1.0   11.6
H     5.6   -3.7   -9.7
H    -3.7   10.0    5.1
H    -4.6    2.0   10.7
H     0.4    2.8  -11.5
H   -10.8    4.7    1.1
H    11.2    2.7    2.8
C    -7.1   -5.5   -7.7
I     3.0   -9.2    6.9
I    10.4   -5.8    0.7
C    -7.2    5.5   -7.7
H    -3.2    2.9   11.1
C     6.0   -9.1   -4.9
I   -10.4    5.1   -2.8
H    -2.4    9.9    6.3
I    -0.7    5.0  -10.8
H     6.5    8.8    4.9
H     0.4  -11.9   -1.0
H    -6.6    6.4   -7.7
C    -7.2   -9.2    2.8
H     7.0   -2.7   -9.3
C    -7.6    9.0   -2.5
H    -6.5   -6.4   -7.8
C    -3.1    0.9   11.6
H    -6.8    6.0    7.9
H    -4.3    8.7    7.1
I    11.8   -1.8    1.7
N     5.3  -10.1   -4.1
P     5.5   10.8    0.7
H    -6.8    9.7   -2.6
N     5.3    2.0   10.7
H     4.6    8.7    7.1
H     9.2    4.6   -6.4
H     9.3   -4.8   -6.3
H    -7.9   -9.1    1.9
H   -11.2    2.5   -4.2
I    -5.2    9.3   -5.9
C    -7.6    5.3    8.0
H    -3.1   11.3   -3.6
P   -12.2   -0.3    0.7
I   -10.4   -6.0   -2.8
P    -3.4   -4.0   11.2
H    -6.5  -10.1    2.7
H     8.8    8.5   -0.9
H    -8.4    5.5    7.2
H     5.2   10.0    5.1
H    -8.6    6.3   -6.3
H    -8.3   -5.6    7.2
C     5.9    9.3    5.6
P    10.0   -0.3   -7.2
I    -0.8   12.3   -0.4
H    -3.4    8.5   -8.3
I    -9.6   -6.2    4.7
N    -8.2    9.2   -1.1
I    -1.5   -9.7    7.6
C    -7.5   -5.7    8.0
H    -9.0    8.5   -0.9
H    -4.2  -10.7   -4.7
I    -0.7   -6.0  -10.8
I   -12.1   -2.0   -2.0
I    -7.4   -2.1   -9.8
H     5.5   -0.0   11.2
H   -11.3   -2.2    4.9
H    -8.5   -6.5   -6.4
H   -11.9    0.3   -3.6
H     2.3   12.0    2.7
H     0.9   -1.8   12.4
H     4.7  -10.7   -4.7
H   -10.8   -6.4    1.1
H     0.3   11.9    4.0
P     5.6  -11.3    0.7
H   -11.2    1.5   -5.6
H    -7.2   -6.7    8.0
P    10.0    7.1    3.3
H    -3.4    7.4   -9.7
H    -1.9    8.4   -9.3
H     5.8   -1.7  -11.2
H    -8.5   -8.5    4.2
