         400
 sphere cut out from bulk 
P     1.7   -0.0    0.0
I    -1.0    1.9    0.3
I    -0.2   -2.6    0.1
H    -1.2   -0.5   -2.7
H    -1.3   -0.8    3.1
I     1.5   -0.0   -3.2
H    -2.5    1.2    2.4
H    -2.7   -1.2   -2.3
H    -2.8   -1.2    2.2
N    -2.2   -0.6   -3.0
I     2.0   -0.1    3.2
H    -2.9    1.2   -2.2
C    -2.4   -0.8    3.1
I     3.3    2.7   -0.2
C    -2.9    0.7   -3.2
N    -2.9    0.6    3.2
H    -2.2   -1.2   -3.9
H     2.1   -3.5   -2.2
I     4.3   -1.8   -0.3
H     2.2    3.2   -2.6
H    -2.4    1.2   -3.9
H     1.5    3.2    3.2
H     2.0   -2.9    3.3
I    -4.5   -1.8   -0.3
H    -2.5    1.1    4.1
H     1.7    4.3    1.7
H     0.5   -4.2   -2.7
H    -2.8   -1.3    4.0
H    -3.9    0.6    3.2
C     1.5   -3.9   -3.0
C     1.3    4.2    2.8
H     1.5   -3.3   -3.9
H    -3.9    0.5   -3.5
H     0.3    4.5    2.8
P    -2.8   -4.5   -0.0
P    -2.8    4.5   -0.0
H     1.7   -4.8    1.7
H     0.3   -4.6    2.8
H     0.4    4.9   -2.7
N     2.1    3.9   -3.5
H     1.6    3.4   -4.2
N     2.1   -3.9    3.6
C     1.4   -4.8    2.8
H     4.8    0.6    3.2
H     4.8    0.5   -3.5
I    -5.4    2.7   -0.2
C     1.5    5.2   -3.0
I    -2.9    4.5   -3.2
I    -2.9   -4.6   -3.2
H     1.8   -3.9    4.6
I    -3.1   -4.5    3.2
H     3.2   -4.1    3.6
H     5.8    1.2   -2.2
H     2.0    5.6   -2.2
H     3.1    4.1   -3.8
I    -3.1    4.6    3.2
I    -0.3    6.4    0.1
I    -1.0    1.8    6.1
H     6.0   -1.2    2.2
P     1.6   -0.0   -6.4
P     1.7    0.0    6.3
H     6.1   -1.2   -2.3
N     2.2   -5.2   -3.5
I    -1.1   -1.8   -6.3
N     2.1    5.2    3.6
C     5.9    0.7   -3.2
N     5.9    0.6    3.2
I    -0.1    2.7   -6.2
H     6.2    1.2    2.4
H     2.3   -5.8   -2.6
H     1.5   -5.8    3.2
I    -0.1   -2.7    6.3
H     3.1    5.0    3.6
H     3.2   -5.0   -3.8
P    -7.1   -0.0    0.0
H     1.8    5.2    4.6
C     6.4   -0.8    3.1
H     1.4    5.8   -3.9
N     6.6   -0.6   -3.0
H     1.7   -5.6   -4.2
H     2.0    6.2    3.3
I     3.4   -6.4   -0.2
I    -1.0   -7.2    0.3
H     6.0   -1.3    4.0
I    -6.7   -0.1    3.2
P     5.9    4.5   -0.0
P     6.0   -4.5   -0.0
H     6.2    1.1    4.1
H     6.4    1.2   -3.9
H     6.6   -1.2   -3.9
H    -6.6    3.2   -2.6
I     3.3    2.8    6.5
H    -5.6   -4.1    3.6
H    -6.7   -3.5   -2.2
I     3.3   -2.8   -6.6
I     5.7   -4.5    3.2
I     4.2    1.8   -6.5
H    -5.7    4.1   -3.8
I     5.7    4.6    3.2
I    -7.3   -0.0   -3.2
I     7.8    1.9    0.3
H     7.5   -0.5   -2.7
H    -6.8   -2.9    3.3
I     4.4   -1.8    6.6
I     5.9    4.5   -3.2
I    -4.5    1.8   -6.5
I    -4.4   -1.8    6.6
H     7.5   -0.8    3.1
I     5.9   -4.6   -3.2
P    -2.7   -4.5   -6.4
P    -2.7   -4.5    6.4
P    -2.8    4.5    6.4
P    -2.7    4.5   -6.4
H    -5.7    5.0    3.6
I    -5.4   -6.4   -0.2
I     4.2    7.2   -0.3
H    -5.6   -5.0   -3.8
N    -6.6    3.9   -3.5
N    -6.6   -3.9    3.6
H    -7.1    4.3    1.7
I    -4.6    7.2   -0.3
H    -7.3    3.2    3.2
H    -2.6    0.6   -8.2
H    -2.5   -7.9    2.4
H    -2.8    7.8    2.2
H    -2.8    7.9   -2.3
H    -2.9   -7.9   -2.2
H    -7.1   -4.8    1.7
C    -7.3   -3.9   -3.0
I    -0.0   -6.3   -6.2
H    -7.3   -3.3   -3.9
I    -5.5    2.8    6.5
I    -0.1    6.4    6.3
I     8.6   -2.6    0.1
H    -1.4    8.3    3.1
I    -5.4   -2.8   -6.6
H    -2.7   -1.1    8.5
H    -7.2    3.4   -4.2
C    -7.5    4.2    2.8
H    -6.7    5.6   -2.2
H    -2.3   -7.8   -3.9
N    -6.6   -5.2   -3.5
H    -1.2   -0.4    9.0
H    -2.2    7.9   -3.9
H    -1.3    8.6   -2.7
H    -6.5   -5.8   -2.6
H    -2.8    7.8    4.0
H    -7.0   -3.9    4.6
P     1.6    9.1    0.0
C    -2.5    8.3    3.1
N    -6.7    5.2    3.6
N    -2.3    8.4   -3.0
P     1.7   -9.1    0.0
H    -1.3    0.4   -9.2
C    -7.4   -4.8    2.8
H    -2.5   -8.0    4.1
I    -9.0   -2.6    0.1
H    -2.9    1.3    8.8
C    -2.9   -8.4   -3.2
H     1.6    3.2   -8.8
N    -2.3    0.6   -9.1
C    -7.3    5.2   -3.0
N    -2.8   -8.4    3.2
P    -7.1    0.0    6.3
H     1.8   -3.5   -8.7
I    -1.0   -7.3    6.1
N    -2.2   -0.6    9.3
P    -7.2   -0.0   -6.4
I     1.5    0.0    9.5
I     1.3    0.0   -9.6
I     3.4   -6.3    6.5
H     2.1   -3.3    8.8
H    -8.3   -4.2   -2.7
I    -1.1    7.3   -6.3
I     1.4    9.0   -3.2
I     2.0    8.9    3.2
I     3.3    6.3   -6.6
H    -6.8    6.2    3.3
I     1.5   -9.1   -3.2
H     2.2    3.4    8.9
H    -3.9   -8.4    3.2
H    -7.2   -5.8    3.2
H    -7.0    5.2    4.6
P     6.0    4.5    6.4
P     6.0    4.5   -6.4
P     6.1   -4.5    6.4
H    -2.4    1.6   -9.5
P     6.1   -4.5   -6.4
I     2.1   -9.2    3.2
I    -9.8    1.9    0.3
H    -1.2   -9.6   -2.7
H    -7.1   -5.6   -4.2
I     7.7    1.8    6.1
H    -8.3    4.9   -2.7
H    -8.5   -4.6    2.8
H    -8.5    4.5    2.8
H    -3.9   -8.6   -3.5
I     7.7   -1.8   -6.3
H     6.0    7.8    2.2
H     5.9   -7.9   -2.2
H     0.5   -4.0    9.2
H    -2.9   -1.3   -9.6
C    -2.9    0.7    9.7
H     6.0    7.9   -2.3
H    -7.4    5.8   -3.9
H     6.1    0.6   -8.2
H     4.9   -8.4    3.2
H     0.4   -3.9   -9.5
H    -1.2   -9.8    3.1
H   -10.0   -0.5   -2.7
H     6.3   -7.9    2.4
N    -2.2   -9.7   -3.0
H    -2.1   -1.3   10.1
C     1.5   -3.8    9.6
N     1.5   -3.9   -9.6
C    -3.1   -0.3  -10.0
P    10.4   -0.0    0.0
H     1.8    5.6   -8.7
H     9.0    4.5    2.8
C     1.9    3.7   -9.6
H     4.9   -8.6   -3.5
H     6.1   -1.1    8.5
H     9.3   -4.2   -2.7
I    -5.4   -6.3    6.5
H     0.5    5.0    9.2
H     6.0    7.8    4.0
H     9.1   -4.6    2.8
H   -10.1   -0.8    3.1
C    -2.3   -9.8    3.1
N    -2.9    9.7    3.2
I     7.8   -7.2    0.3
I     4.3   -7.3   -6.5
C    -3.0    9.7   -3.2
I    -5.5    6.3   -6.6
H     1.6   -5.9   -8.8
I     8.5    6.4    0.1
H     5.9    1.3    8.8
I    10.2   -0.0   -3.2
I    -4.5   -7.3   -6.5
I     4.3    7.3    6.6
H    -4.1   -0.1   -9.9
N     2.2    3.9    9.8
C     5.9   -8.4   -3.2
H     3.0    3.7   -9.6
H     2.3   -5.7    8.9
H     2.0    5.8    8.8
H    -3.9    0.4   10.0
I    -4.5    7.3    6.6
I    -2.4    4.4   -9.6
H     9.2    4.9   -2.7
N     5.9   -8.4    3.2
H    -2.3    1.1   10.5
H    -2.6   10.2    2.4
H     0.4    5.1   -9.5
H    -2.7  -10.3   -2.3
H    -2.7  -10.3    2.2
H     6.5   -7.8   -3.9
C     6.3    8.3    3.1
H    -3.0   10.3   -2.2
H    -4.0    9.5   -3.5
I    -2.4   -4.7   -9.6
N     1.4    5.1   -9.6
H     4.6   -0.1   -9.9
H     6.3   -8.0    4.1
H     6.5    7.9   -3.9
H    -4.0    9.7    3.2
I    -2.9   -4.5    9.6
I    -1.1   10.9    0.3
I    -2.9    4.5    9.6
I     8.7    2.7   -6.2
C     1.5    5.2    9.6
N     6.5    8.4   -3.0
I     8.7   -2.7    6.3
H     1.8   -3.4  -10.4
I    -9.0    6.4    0.1
H     1.7    3.4   10.5
I    -8.9    2.7   -6.2
H     1.6    3.3  -10.5
H    -2.1  -10.2   -3.9
P     1.6    9.0   -6.4
H     1.5   -3.3   10.5
P     1.8   -9.0    6.3
I    -8.9   -2.7    6.3
C     2.0   -5.3   -9.6
H     4.9    0.4   10.0
H    10.3    3.2    3.2
N     6.5    0.6   -9.1
H     4.8    9.5   -3.5
P     1.7    9.1    6.3
P     1.7   -9.1   -6.4
H    -2.6   10.2    4.1
N     2.2   -5.1    9.8
I    10.8   -0.1    3.2
C    10.1    4.2    2.8
H    -2.4   10.3   -3.9
H     4.8    9.7    3.2
H     3.2    4.1   10.1
H     5.9   -1.3   -9.6
H    -2.7   -0.3  -11.0
C     5.9    0.7    9.7
N     6.6   -0.6    9.3
N   -11.0   -0.6   -3.0
C    10.3   -3.9   -3.0
H    10.4    4.3    1.7
H     3.1   -5.3   -9.6
H    10.2   -3.3   -3.9
H    -2.7  -10.4    4.0
C     5.7   -0.3  -10.0
P    -7.1   -9.1    0.0
H     6.3    1.6   -9.5
H    -6.6    3.4    8.9
P    -7.2    9.1    0.0
H    -6.7   -3.3    8.8
H     7.4    8.3    3.1
C    10.1   -4.8    2.8
H   -11.3    1.2    2.4
H    10.9   -3.5   -2.2
C   -11.2   -0.8    3.1
H    -6.9   -3.5   -8.7
H    10.8   -2.9    3.3
H    10.5   -4.8    1.7
I    -6.8    8.9    3.2
H   -11.0   -1.2   -3.9
H     3.2   -5.0   10.1
H     7.5    8.6   -2.7
I    -0.2  -11.7    0.1
I    -9.8    1.8    6.1
H    10.4    3.4   -4.2
H     7.5   -0.4    9.0
I     4.3  -10.9   -0.3
H    11.0    3.2   -2.6
N     5.8    9.7    3.2
C     5.8    9.7   -3.2
H   -11.5   -1.2   -2.3
H    -7.2    3.2   -8.8
I    -4.5  -10.9   -0.3
H   -11.5   -1.2    2.2
I    -6.7   -9.2    3.2
I    -9.9   -1.8   -6.3
H    -5.8    3.7   -9.6
H     7.5    0.4   -9.2
C    10.2    5.2   -3.0
H   -11.2    1.2   -3.9
I    -7.2    0.0    9.5
H     1.8    5.7  -10.4
H   -11.7    1.2   -2.2
H     5.8   10.3   -2.2
H    -2.8    8.0    8.5
H    -2.6   -8.5   -8.2
H     1.7   -5.7   10.5
H   -11.3    1.1    4.1
I    -7.3   -9.1   -3.2
N    10.9    3.9   -3.5
I    -7.4    9.0   -3.2
H     1.5    5.8   10.5
H    -2.9   -7.8    8.8
I    -9.7   -7.2    0.3
I     5.9    4.5    9.6
N   -11.7    0.6    3.2
N     6.6   -9.7   -3.0
N    10.9   -3.9    3.6
C   -11.7    0.7   -3.2
I     5.9   -4.5    9.6
H     1.6   -5.8  -10.5
H     6.1  -10.3    2.2
I    -7.5    0.0   -9.6
H     6.7   -1.3   10.1
C     6.4   -9.8    3.1
P    10.4   -0.0   -6.4
H     6.1  -10.3   -2.3
H    10.6   -3.9    4.6
H     6.2   10.2    2.4
I     3.3   11.7   -0.2
H    -5.6    4.1   10.1
P    10.5    0.0    6.3
I     7.6    7.3   -6.3
H    10.3   -5.8    3.2
I     6.4    4.4   -9.6
I     7.8   -7.3    6.1
H   -11.5   -1.3    4.0
H    -2.4   -7.5   -9.5
H    10.2    5.8   -3.9
H    -6.5   -5.7    8.9
H    10.8    5.6   -2.2
C    -6.9    3.7   -9.6
H    -5.7   -5.3   -9.6
H     6.5    1.1   10.5
I    12.1    2.7   -0.2
N    -6.6    3.9    9.8
P   -11.6   -4.5   -0.0
I     6.4   -4.7   -9.6
I     8.6    6.4    6.3
I     8.8   -6.3   -6.2
H    -7.0    5.6   -8.7
P   -11.6    4.5   -0.0
I    -8.8   -6.3   -6.2
H     7.6   -9.6   -2.7
H    -5.6   -5.0   10.1
I    -1.1   10.9    6.1
H    -1.3    8.7    9.0
