         400
 sphere cut out from bulk 
I    -1.7   -0.7    0.6
H     0.1   -2.2   -0.1
N     1.0   -2.6   -0.4
H     1.2   -2.2   -1.3
H     1.8   -2.2    0.2
H     0.1    3.4    0.4
H    -2.3    0.3   -2.7
H     0.7    3.4   -1.3
H     1.4   -0.5    3.5
I     3.2   -0.9    1.8
H     1.8    3.4    0.1
C     0.9    3.7   -0.3
I     1.6   -0.9   -3.4
H    -3.0   -1.4   -2.3
C    -3.2   -0.3   -2.6
C     1.0   -4.1   -0.4
H    -3.8    0.1   -1.8
H    -0.1   -0.2    4.3
P    -3.6    1.5    2.2
H     0.1   -4.4   -1.0
N     0.9   -0.3    4.4
H     0.9   -4.4    0.6
I    -1.3    3.4    3.1
I    -1.0    3.0   -3.7
H     1.9   -4.4   -0.9
H     1.4    0.5    4.8
P    -3.4   -3.0    2.4
I    -4.3    3.0   -0.4
N     0.9    5.2   -0.3
I    -2.7   -0.6    4.6
H     0.8   -2.4    4.8
H     5.2    0.1   -1.8
I    -0.7   -4.5    3.1
N    -4.0   -0.3   -3.9
I     4.7    3.0   -0.4
C     1.2   -1.5    5.3
H     4.2   -0.8   -3.8
H     0.0    5.7   -0.6
H     1.2    5.6    0.6
H    -3.4   -0.7   -4.7
P     0.9    1.3   -5.6
H     1.6    5.6   -1.0
I     3.2    2.7    4.2
H    -4.2    0.7   -4.2
P     5.4    1.5    2.2
H     2.3   -1.6    5.4
I    -1.0   -4.7   -3.8
I    -5.8   -0.9    1.8
I    -4.1   -4.7   -0.2
H    -4.9   -0.8   -3.8
C     5.8   -0.3   -2.6
N     5.1   -0.3   -3.9
H     4.8    0.7   -4.2
H     0.7   -1.3    6.3
I    -1.4   -0.8   -6.3
P     0.9   -3.1   -5.7
H     6.0   -1.4   -2.3
P    -3.6    4.7   -3.1
I     3.6    2.8   -5.0
I     4.9   -4.7   -0.2
P     5.6   -3.0    2.4
P     0.9    4.8    5.1
H    -3.0    5.8    2.8
H    -3.3    6.3    1.2
I    -2.1    6.8   -1.1
H     6.7    0.3   -2.7
I     7.3   -0.7    0.6
H     5.6   -0.7   -4.7
H    -3.3    0.7    6.6
I     3.8   -4.7    4.3
H     0.7    5.4   -5.2
I     1.9    6.8    2.7
H    -7.2   -2.2    0.2
N    -3.5    6.4    2.2
I     3.5   -4.8   -4.9
I    -5.8    2.7    4.2
P    -3.6   -6.3   -2.9
P     5.4    4.7   -3.1
I    -5.4    2.8   -5.0
I     6.4   -0.6    4.6
I     3.0    6.8   -2.6
I     2.6   -0.8   -7.4
H    -7.2    3.4    0.1
H     4.4    6.3    2.3
P     1.1   -6.3    5.0
H    -4.6    6.3    2.3
H    -2.6    2.9    7.1
H    -2.2   -7.4    2.4
H    -3.9   -6.9    1.9
I    -7.4   -0.9   -3.4
H    -7.8   -2.2   -1.3
I    -5.2   -4.7    4.3
H    -2.8    0.5   -7.8
I     0.2    3.2    7.7
N    -3.5    1.1    7.5
H    -7.1   -4.4   -0.9
N    -8.0   -2.6   -0.4
H    -7.6   -0.5    3.5
C     1.1    6.1   -6.0
H     5.8    6.3    1.2
H    -4.4    2.9    6.9
H    -2.8    0.7    8.2
C    -3.3   -7.6    2.5
H    -2.2    8.0    2.4
C    -3.6    2.6    7.5
N     5.5    6.4    2.2
H     4.6    2.9    6.9
H     5.7    0.7    6.6
H    -6.7   -1.6    5.4
P     5.4   -6.3   -2.9
I     0.2    3.0   -8.3
I    -5.5   -4.8   -4.9
H     6.0    5.8    2.8
H     2.1    5.9   -6.2
H    -3.8    2.7   -7.5
H     5.2   -6.9    1.9
C    -3.2    7.9    2.5
I    -2.1   -8.6   -1.1
H    -3.6   -7.4    3.6
C    -8.2    3.7   -0.3
I     7.7    3.4    3.1
H     1.5    7.6   -4.6
I     2.7   -0.6    8.6
C    -8.0   -4.1   -0.4
H    -4.4    0.6    7.8
I     0.5   -4.7    7.7
H    -7.7    0.5    4.8
H    -3.6   -4.9    6.8
I    -2.7    6.9   -5.2
I    -1.2    7.1    5.5
H     4.6    0.6    7.8
H    -8.4    3.4   -1.3
H     0.5    6.0   -6.9
H    -8.9   -2.2   -0.1
H     1.4   -7.9   -4.6
N    -8.1   -0.3    4.4
I     1.9   -8.6    2.7
N    -3.6    0.9   -8.5
H    -8.1   -4.4    0.6
H    -0.1    7.6   -5.2
N     0.9    7.5   -5.5
H    -4.5    0.4   -8.2
H    -7.4    5.6   -1.0
I     8.0    3.0   -3.7
H     4.5    0.4   -8.2
N     5.5    1.1    7.5
H    -0.1   -7.8   -5.2
H     9.2   -2.2   -0.1
I    -6.0    6.8   -2.6
H    -3.5    8.0    3.6
H    -3.8    8.5    1.9
I     3.0   -8.6   -2.6
C    -7.8   -1.5    5.3
H     5.2    2.7   -7.5
C    -3.6    2.4   -8.5
H    -8.9    3.4    0.4
C     5.4    2.6    7.5
H     1.2   -7.3   -6.2
N    -8.1    5.2   -0.3
H    -7.8    5.6    0.6
I     0.4   -4.9   -8.3
H    -2.6   -5.1   -7.8
N     0.9   -8.0   -5.5
H     9.1    3.4    0.4
H    -2.7    2.7   -8.9
H    -3.7    2.9    8.5
I     6.9    6.8   -1.1
H    -0.0   -9.8   -0.6
H    -3.3   -9.2    1.2
H    -8.2   -2.4    4.8
C     5.7   -7.6    2.5
I    -6.4   -0.8   -7.4
I     7.6   -0.8   -6.3
I    -1.4   -0.6    9.7
H     5.4   -7.4    3.6
H    -2.5   -4.9    8.2
H     0.7   -1.5   -9.7
H     8.9   -0.2    4.3
H     1.2   -9.8    0.6
N    -3.6   -9.0    2.2
I     8.3   -4.5    3.1
H     5.4   -4.9    6.8
H    -8.9   -4.4   -1.0
H     6.4    2.9    7.1
P    -8.1    1.3   -5.6
H     6.2    0.5   -7.8
C    -3.5   -5.3    7.8
H    -3.4    0.5   -9.4
H     1.6   -9.9   -1.0
I    -1.3   -8.3    5.5
C     5.8    7.9    2.5
I     2.8    6.9    6.8
I     8.1   -4.7   -3.8
H    -9.1   -0.2    4.3
N     5.4    0.9   -8.5
H     5.2    8.5    1.9
H    -4.4   -5.1   -7.6
I    -7.1    6.8    2.7
H     9.2   -4.4   -1.0
P    -3.5    9.2   -2.9
N     0.9  -10.2   -0.3
H     4.7   -5.1   -7.6
H     6.2    0.7    8.2
H     1.2    8.2   -6.2
H     9.7    3.4   -1.3
H     6.8   -7.4    2.4
I    -2.7   -8.5   -5.2
C     5.4    2.4   -8.5
H     5.5    8.0    3.6
N    10.0   -2.6   -0.4
P    -8.1   -3.1   -5.7
H    -2.7   -7.1    7.1
H     4.4   -9.2    2.3
H     5.3    2.9    8.5
H    -8.3   -1.3    6.3
C    -3.5   -5.5   -8.2
H    -3.0   -9.7    2.8
P     1.2    9.2    5.0
H    -4.6   -9.2    2.3
P     0.9    1.5   10.4
H    10.2   -2.2   -1.3
H    -4.5    2.7   -9.2
H     4.5    2.7   -9.2
C     9.9    3.7   -0.3
H    -9.0    5.7   -0.6
H    -4.3   -4.9    8.4
H     9.0    5.7   -0.6
I    -6.4   -0.6    8.6
P    -8.1    4.8    5.1
P     1.0   -2.9   10.3
N     5.4   -9.0    2.2
I     6.3    6.9   -5.2
I   -10.8   -0.7    0.6
H     6.8    8.0    2.4
H     4.7   -4.9    8.4
C    10.0   -4.1   -0.4
N    -3.5   -6.7    7.8
I    -6.0   -8.6   -2.6
H     5.7   -9.2    1.2
N     9.9   -0.3    4.4
H     9.9   -4.4    0.6
H    -3.3   -7.4   -7.3
C     5.5   -5.3    7.8
C     1.2   -1.7  -10.7
H    10.4   -0.5    3.5
H     2.2   -1.8  -10.6
H     5.7    0.5   -9.4
H    -6.9    5.9   -6.2
H    10.8   -2.2    0.2
H     0.5    6.2    9.1
H     0.9   11.0    0.6
P     5.5    9.2   -2.9
I   -10.0    3.0   -3.7
H     0.2   11.0   -1.0
I     6.9   -8.6   -1.1
C     1.0   -9.4   -6.0
H    -3.7   -5.1   -9.2
I    -9.7   -4.5    3.1
H    -8.3    5.4   -5.2
H     9.8   -2.4    4.8
H    -4.4   -7.2    7.4
P    -7.9   -6.3    5.0
H     2.0   11.0   -0.9
I    10.7   -0.9   -3.4
I     2.7   -8.5    6.8
N     9.9    5.2   -0.3
H    -2.7    8.3    7.1
H     6.3    2.7   -8.9
C     5.5   -5.5   -8.2
H     1.3    0.3  -11.2
H     4.7   -7.2    7.4
I   -10.3    3.4    3.1
H     0.7  -10.0   -5.2
H     6.4   -5.1   -7.8
N    -3.5   -6.9   -8.3
H    10.8    3.4    0.1
I    -0.7   10.9    3.1
H    -3.3    8.1   -7.3
I    -0.9   10.7   -3.8
C     1.0   11.4   -0.4
H    10.4    0.5    4.8
P     9.9    1.3   -5.6
H     0.7   -2.6  -11.2
I    -7.1   -8.6    2.7
I    -4.1   10.8   -0.2
I    -6.3    6.9    6.8
H     6.5   -4.9    8.2
H     2.1   -9.5   -6.2
C    10.2   -1.5    5.3
H   -11.3    0.3   -2.7
N     0.9   -0.5  -11.6
H    -7.6    7.6   -4.6
I   -10.0   -4.7   -3.8
C    -8.0    6.1   -6.0
H     9.8   -1.3    6.3
H    10.2    5.6    0.6
N     5.6   -6.7    7.8
H     6.0   -9.7    2.8
H     0.4   -9.5   -6.9
H    -0.2   -0.4  -11.7
H    -3.3   -7.2    8.7
I     2.7    6.7   -9.2
I    -2.7   -0.8  -11.4
C     0.8  -11.7   -0.3
H     2.2    6.1    9.8
P    -3.6  -10.8   -3.1
I     6.3   -8.5   -5.2
H     5.7   -7.4   -7.3
H     5.4   -5.1   -9.2
H    11.0   -4.4   -0.9
H    -3.3   -0.5   11.4
H    -7.6   -7.9   -4.6
H    -2.8   -7.3   -8.9
P     0.8    4.5  -10.9
H     6.3   -7.1    7.1
P     0.9  -10.7    5.1
I     5.0   10.8   -0.2
C     1.1    6.3   10.0
P     9.9   -3.1   -5.7
I     7.8    7.1    5.5
H    -4.3    8.3    7.4
H     0.0  -12.0    0.4
I     3.7    3.0   11.1
H    10.6    5.6   -1.0
H     4.7    8.3    7.4
P     9.9    4.8    5.1
N     5.5   -6.9   -8.3
I    -8.8    3.2    7.7
H    -4.4   -7.4   -8.6
H     0.6  -12.1   -1.3
N    -3.4    8.7    7.8
H     1.2   -7.1    9.8
H     0.8    5.6   10.8
I     3.8   10.8    4.3
H     4.6   -7.4   -8.6
I   -10.5   -0.8   -6.3
H     1.8  -12.1    0.1
I     3.5   10.6   -4.9
H     9.7    5.4   -5.2
H   -12.0   -1.4   -2.3
N    -8.1    7.5   -5.5
H     5.7    8.1   -7.3
N    -3.5    8.5   -8.3
H    -7.8   -7.3   -6.2
H    -2.7    8.1   -8.9
H    -7.4   -9.9   -1.0
I     7.6   -0.6    9.7
I    12.2   -0.9    1.8
I    -8.5   -4.7    7.7
H    -3.2    8.3    8.7
P     5.4  -10.8   -3.1
I    -8.8    3.0   -8.3
I     3.1    2.5  -11.8
I    -1.4  -12.0    3.1
I     9.3    3.2    7.7
C   -12.2   -0.3   -2.6
H    -8.6    6.0   -6.9
I     3.5   -4.6   11.1
H    -4.4    8.1   -8.6
I   -11.7   -0.6    4.6
I    -6.3   -8.5    6.8
H    -7.9   -9.8    0.6
H    -4.2    0.9   11.9
H     1.3   -0.7  -12.5
I    -1.3    6.9  -10.5
I     7.7   -8.3    5.5
H     6.3    8.3    7.1
H    11.3   -1.6    5.4
N    -8.2   -8.0   -5.5
I    -5.3    3.0   11.1
H     5.8   -7.2    8.7
H     4.6    8.1   -8.6
I    -5.2   10.8    4.3
H    -6.8   -1.8  -10.6
H     5.7   -0.5   11.4
I    -0.9    3.2   12.3
I     9.2    3.0   -8.3
N    -3.9   -0.1   12.1
I     1.7   -0.7   12.6
H     4.9    0.9   11.9
P     1.1   -6.5  -11.0
H     8.9    7.6   -5.2
H    -7.8    8.2   -6.2
H    -8.3   -1.5   -9.7
N     1.1   12.9   -0.4
I    -8.6   -4.9   -8.3
H     8.9   -7.8   -5.2
P    10.2   -6.3    5.0
N     5.6    8.7    7.8
I    -5.5   10.6   -4.9
P   -12.7    1.5    2.2
H     4.2   -0.6   12.2
I     2.7   -8.7   -9.2
H   -12.8    0.1   -1.8
P   -12.4   -3.0    2.4
H     1.3    8.4    9.8
H    -9.1    7.6   -5.2
H     0.5   -9.3    9.1
H    -3.6   10.6    6.8
I     6.3   -0.8  -11.4
