         400
 sphere cut out from bulk 
I    -0.4   -0.2    0.5
H    -1.4    0.2   -1.8
P     2.2   -1.6   -0.7
N    -1.6    0.7   -2.7
H    -0.7    0.8   -3.2
H    -1.9    1.7   -2.5
P    -2.2    2.0    2.0
H    -2.2   -1.9    2.1
H     2.2   -0.4    3.1
I     2.1    0.3   -3.3
H     0.7   -0.6    4.0
I     4.0    0.5    0.9
H     2.3    3.1   -1.7
H     1.0    4.0   -0.9
C    -2.6   -0.0   -3.5
H     2.8    3.3    0.6
I     0.4   -3.7   -2.4
H    -2.2   -1.0   -3.7
C    -2.8   -2.8    2.1
I    -2.3    3.8   -0.7
C     1.8   -0.5    4.1
H    -3.2   -3.0    1.1
H    -1.1   -4.1    1.8
H    -3.5   -0.1   -2.9
I     2.1   -3.7    1.8
I     0.5    3.4    3.1
C     2.1    4.0   -1.2
I    -4.9    0.5    0.9
N    -1.9   -4.0    2.4
N     3.0    4.1    0.0
H     1.8    1.5    4.6
I    -2.3    0.2    4.6
H    -2.7    0.5   -4.4
H     2.2   -1.4    4.6
H    -1.5   -3.8    3.4
H    -3.6   -2.8    2.8
I    -4.1   -3.1   -1.7
N     2.1    0.6    5.0
H     2.3    4.9   -1.8
H     4.0    4.1   -0.3
H     2.8    5.0    0.5
H     1.6   -3.1   -4.6
I     4.8   -3.1   -1.7
H    -2.4   -4.9    2.5
H     3.2    0.7    5.1
H     5.3   -0.1   -2.9
I    -0.4    3.7   -4.9
H     1.7    0.5    5.9
H    -4.9    4.1   -0.3
H     1.6   -2.1   -5.9
H     5.7   -3.0    1.1
N     2.0   -2.9   -5.5
P    -2.3   -5.2   -3.3
H     5.3   -2.8    2.8
P     2.2    2.1   -5.9
H     2.7   -6.0    0.5
I    -3.9    4.3    3.4
H     2.2   -6.1   -1.8
I    -0.3   -3.8    5.6
H     3.0   -2.8   -5.4
P    -6.7   -1.6   -0.7
H    -6.1    3.3    0.6
C     6.1   -2.8    2.1
H    -2.4    6.1    2.5
P    -2.3    5.8   -3.3
H     1.0   -7.0   -0.9
C     6.3   -0.0   -3.5
I    -2.4   -3.4   -5.9
N    -5.9    4.1    0.0
H    -1.1    6.9    1.8
H     6.7   -1.9    2.1
P     6.7    2.0    2.0
H    -6.6   -0.4    3.1
I     4.9    4.3    3.4
I     4.0    4.2   -4.5
C     2.0   -7.0   -1.2
I     0.4   -0.2   -7.4
P     2.3   -5.3    4.6
H    -6.6    3.1   -1.7
N     2.9   -6.9    0.0
I    -6.8    0.3   -3.3
H    -2.1    2.5    6.8
H     6.1    0.5   -4.4
H     7.0    1.7   -2.5
I    -2.3   -7.2   -0.7
I     6.6    3.8   -0.7
H     6.6   -1.0   -3.7
P     2.3    5.7    4.6
N    -1.8    7.0    2.4
H     7.5    0.2   -1.8
H    -5.7    0.7    5.1
P    -2.2   -1.6    7.2
H     0.6   -4.1   -6.5
I     0.4    7.3   -2.4
H    -2.6    4.1    6.0
C     1.7   -4.1   -6.4
N     7.3    0.7   -2.7
I    -4.8    4.2   -4.5
I     2.1    7.3    1.8
H    -6.1    5.0    0.5
I    -6.8   -3.7    1.8
H     3.9   -6.9   -0.3
I     4.1   -3.2    6.0
C    -6.8    4.0   -1.2
H     2.1   -5.0   -5.9
I     6.6    0.2    4.6
H    -1.4    7.2    3.4
I     0.5   -0.1    8.1
H    -1.6    3.6   -7.1
C    -7.1   -0.5    4.1
I    -4.1    0.7   -7.1
C    -2.5    3.5    7.0
H    -6.7   -1.4    4.6
H     2.8   -7.7    0.6
I     0.5   -7.6    3.1
I    -4.7   -3.2    6.0
N    -6.7    0.6    5.0
H     2.3   -7.9   -1.7
N     7.0   -4.0    2.4
H    -6.6    4.9   -1.8
H    -5.8   -2.8   -5.4
H     6.5   -4.9    2.5
I     8.5   -0.2    0.5
H    -4.9   -6.9   -0.3
I     2.2    3.9    7.2
I    -4.0   -6.7    3.4
H    -0.6    4.3    7.3
H    -7.1    1.5    4.6
H    -6.1   -6.0    0.5
I     4.8    0.7   -7.1
H     2.1   -3.9   -7.4
H    -3.2    8.0    1.1
H     2.1    6.0   -5.9
H    -2.5    2.6   -8.0
H     8.2    0.8   -3.2
I    -0.4   -7.4   -4.9
C    -2.7    8.2    2.1
H    -7.9    4.0   -0.9
P    -2.3   -1.6   -8.5
H     7.8   -4.1    1.8
N    -2.0    3.5   -8.1
P     6.6   -5.2   -3.3
H     7.4   -3.8    3.4
H    -3.4    3.5    7.6
I     4.9   -6.7    3.4
N    -1.5    4.3    7.8
I     4.0   -6.8   -4.5
I    -4.1    7.9   -1.7
N    -5.9   -6.9    0.0
H    -7.3   -3.1   -4.6
H    -8.2   -0.6    4.0
P    -6.7    2.1   -5.9
I    -0.3    7.2    5.6
H    -6.6   -6.1   -1.8
N    -6.9   -2.9   -5.5
H     6.5    6.1    2.5
H    -7.2    0.5    5.9
I    -9.3   -0.2    0.5
H     1.6    8.0   -4.6
H     2.4   -2.5    8.7
I     6.4   -3.4   -5.9
I     4.8    7.9   -1.7
H    -3.6    8.2    2.8
P     6.6    5.8   -3.3
H    -1.2    3.3   -8.7
H     0.6    6.9   -6.5
I    -4.9   -6.8   -4.5
P    -2.2   -9.0    2.0
I    -8.4    3.4    3.1
H    -2.2    9.1    2.1
C     1.7    6.9   -6.4
I    -8.5   -3.7   -2.4
H    -2.6   -6.9    6.0
H    -7.2   -2.1   -5.9
H    -1.3    3.8    8.7
H     6.3    4.1    6.0
P    -6.6   -5.3    4.6
I    -4.0    0.4    8.8
I     2.0    3.8   -8.7
P     2.2    9.4   -0.7
H    -3.7    4.7   -7.7
H    -1.8    5.2    8.0
I     6.6   -7.2   -0.7
P    -6.5    5.7    4.6
C    -6.8   -7.0   -1.2
H    -1.9   -9.3   -2.5
H    -6.1   -7.7    0.6
H     5.7    8.0    1.1
H    -0.6   -6.7    7.3
H     6.8    2.5    6.8
P     6.7   -1.6    7.2
H     5.5    3.5    7.6
I    -2.4    7.7   -5.9
N     2.0    8.1   -5.5
C    -2.9    4.6   -8.4
H    -1.8   -5.8    8.0
I     4.9    0.4    8.8
H     2.4   -4.3    8.8
H    -9.6    0.8   -3.2
C     6.4    3.5    7.0
I    -6.7    7.3    1.8
C     2.2   -3.4    9.3
H     5.3    8.2    2.8
I     9.2   -3.7   -2.4
H     2.7   -0.3   -9.9
N     7.0    7.0    2.4
H     3.1    8.2   -5.4
P     2.3    2.0    9.8
H     1.1   -3.4    9.6
H    -6.8   -5.0   -5.9
H    -2.3   -5.5   -8.4
H    -2.3    5.5   -8.4
H    -1.6   -7.4   -7.1
I     2.2   -7.1    7.2
H     2.6    1.4   -9.9
H     5.2    4.7   -7.7
N    -1.5   -6.7    7.8
C     6.1    8.2    2.1
H     9.6   -0.6    4.0
I     8.5    3.7   -4.9
H     2.1    7.1   -7.4
H    -6.6   -7.9   -1.7
H   -10.3    0.2   -1.8
C    -7.2   -4.1   -6.4
I     9.4    3.4    3.1
H     6.4    2.6   -8.0
C    -2.5   -7.5    7.0
H    -7.9   -7.0   -0.9
H     7.8    6.9    1.8
I    -6.7    3.9    7.2
I    -2.2   -3.6    9.7
H    -3.7   -6.4   -7.7
H     1.7   -9.5    4.6
I    -0.5   -3.8  -10.0
I     4.2    7.8    6.0
H     9.9    4.0   -0.9
H    -6.8   -3.9   -7.4
H    -0.7  -10.3   -3.2
N    -1.6  -10.3   -2.7
I     3.9   -3.0   -9.6
H     7.3    3.6   -7.1
I    -0.4   10.8    0.5
N   -10.5    0.7   -2.7
H    -6.8    6.0   -5.9
H     2.2    9.6    4.6
H    -2.2   10.0   -3.7
P     6.6   -1.6   -8.5
H     1.6    9.0   -5.9
N     2.8    0.5  -10.5
H     7.4    7.2    3.4
I     8.6   -3.8    5.6
P     2.2   -8.9   -5.9
H    -3.3    4.4   -9.4
H   -10.0   -4.1    1.8
I    -4.7    7.8    6.0
C    -2.9   -6.4   -8.4
H    -1.4  -10.8   -1.8
H    -2.1   -8.5    6.8
H     6.2   -6.9    6.0
H    -6.5   -2.5    8.7
I    -9.3    3.7   -4.9
N     6.9    3.5   -8.1
H   -10.8    1.7   -2.5
H    -3.4   -7.5    7.6
H     0.7   10.4    4.0
P    11.1   -1.6   -0.7
I    -0.4  -11.2    0.5
N    -2.0   -7.6   -8.1
I    -5.0   -3.0   -9.6
I    -8.5   -0.2   -7.4
I     4.0  -10.5    0.9
H     5.2   -6.4   -7.7
H     2.4    6.7    8.8
H    -8.3   -4.1   -6.5
H     2.3   10.6    3.1
C     6.0    4.6   -8.4
I     2.1  -10.7   -3.3
H    -1.3   -7.2    8.7
H     0.9    0.5  -11.4
H    -5.8    8.2   -5.4
P   -11.0    2.0    2.0
H   -11.1   -1.9    2.1
C     1.8   10.5    4.1
P     6.7   -9.0    2.0
I    -9.2   -3.8    5.6
N     3.1   -3.3   10.5
I    10.9    0.3   -3.3
C    10.7   -0.5    4.1
H     3.8    0.5  -10.8
I     2.0   -7.2   -8.7
I    -8.5    7.3   -2.4
H    -1.4   11.2   -1.8
H     6.7    9.1    2.1
H     4.1   -3.3   10.2
I    -2.4    0.2  -11.2
I    -0.3    3.4   11.0
H   -10.3   -3.8    3.4
P    -6.7    9.4   -0.7
H    11.1   -0.4    3.1
N     7.4    4.3    7.8
I    -4.9  -10.5    0.9
I     6.5    7.7   -5.9
H    -6.2   -0.3   -9.9
H     2.9   -2.5   11.0
H    10.6    1.5    4.6
I    -8.4   -0.1    8.1
I    -6.9    3.8   -8.7
H    -1.2   -7.7   -8.7
N     2.1  -10.4    5.0
H    -7.3    8.0   -4.6
N   -10.7   -4.0    2.4
H    11.2    3.1   -1.7
C    10.9    4.0   -1.2
H    -6.5   -4.3    8.8
I    -8.4   -7.6    3.1
I    11.0   -3.7    1.8
H    -2.8  -10.5   -4.4
H   -11.1   -1.0   -3.7
H    -4.8   -3.3   10.2
I   -11.1    3.8   -0.7
C    -2.6   11.0   -3.5
H     5.6    4.4   -9.4
H    -6.2    1.4   -9.9
H    10.5   -3.1   -4.6
I     9.3   -0.2   -7.4
C    -7.2    6.9   -6.4
C     1.9    0.5  -11.7
H    -3.5   11.0   -2.9
C    -2.6  -11.0   -3.5
H    -2.5   -8.4   -8.0
H     3.2  -10.3    5.1
H     8.3    4.3    7.3
H     7.0   -9.3   -2.5
H    -5.0    0.5  -10.8
H     7.1    5.2    8.0
N    -6.8    8.1   -5.5
H     5.4   -7.5    7.6
C    -6.7   -3.4    9.3
I    -2.3  -10.8    4.6
H    -3.0    0.5   11.6
P    -6.6    2.0    9.8
I     2.1   11.3   -3.3
H    -3.3   -6.6   -9.4
H    -3.6  -11.1   -2.9
H     2.2  -11.4    3.1
C   -11.5   -0.0   -3.5
P    -2.2    9.4    7.2
H     6.6   -5.5   -8.4
H     6.6    5.5   -8.4
I     9.3    7.3   -2.4
C     6.4   -7.5    7.0
H    11.1   -1.4    4.6
I   -11.2    0.2    4.6
H     7.7    3.3   -8.7
N    11.0    0.6    5.0
N    -6.0    0.5  -10.5
N    -1.6   11.7   -2.7
H     9.9   -7.0   -0.9
H    10.6    0.5    5.9
H     7.1   -5.8    8.0
H    11.7    3.3    0.6
I    -6.7   -7.1    7.2
C   -11.6   -2.8    2.1
H     7.6    3.8    8.7
H     1.7  -10.5    5.9
C     6.0   -6.4   -8.4
H     9.5   -4.1   -6.5
H    -0.7   11.8   -3.2
C     2.2    7.6    9.3
I     8.4   -7.4   -4.9
H     2.9   -4.1   11.1
H    -9.9    6.9    1.8
H    -6.7    7.1   -7.4
H    10.5   -2.1   -5.9
I     4.0   11.5    0.9
H     0.7  -11.6    4.0
H    -1.0   -0.5   12.3
H    11.1    4.9   -1.8
H     1.1    7.6    9.6
I    -2.3   11.2    4.6
H     2.4    8.5    8.7
I    -0.5    7.2  -10.0
C     1.8  -11.5    4.1
I     6.7   -3.6    9.7
I     9.4   -0.1    8.1
I    -2.1    7.4    9.7
H     2.2   -0.5  -12.2
N    -5.8   -3.3   10.5
H   -11.6    0.5   -4.4
I     9.4   -7.6    3.1
H   -12.0   -3.0    1.1
P     2.1   -5.2  -11.2
N    11.8    4.1    0.0
I     2.2   -0.1   12.3
H     6.7   10.0   -3.7
H     5.3   11.0   -2.9
I     8.6    7.2    5.6
H    -6.7    9.6    4.6
H   -11.3   -4.9    2.5
H    -8.3    6.9   -6.5
