         400
 sphere cut out from bulk 
H    -2.0    0.2    0.4
H    -1.1    1.6    0.8
N    -2.0    1.1    0.9
H    -1.3    0.1    2.7
I    -2.0   -2.3   -0.2
C    -2.1    0.7    2.4
H    -2.8    1.7    0.7
H     2.2   -2.0    2.0
I     0.6    3.4    1.2
I     2.9   -2.2   -0.4
H    -3.1    0.2    2.5
H    -2.2    1.7    3.0
H     2.1   -0.5   -3.7
P     0.4   -4.0   -1.5
N     2.3   -2.2    3.0
H     2.5   -1.3    3.5
H     3.0    1.0   -3.4
H     1.5   -2.6    3.5
I     0.4   -2.3   -4.2
I    -2.0    3.5   -2.6
N     2.9    0.2   -3.9
H     3.8   -0.4   -3.8
I     3.0    3.5   -2.8
P     0.5    5.3   -1.5
I     3.2    0.8    4.5
C     3.4   -3.1    3.2
P     3.0    3.5    3.2
H     4.3   -2.6    2.8
H     3.2   -4.0    2.7
I    -4.6    3.5    1.2
I     0.4   -5.8    1.2
H     1.9    1.1   -5.5
C     2.8    0.5   -5.4
H    -1.7    5.2    2.7
P    -4.4   -4.0   -1.5
I    -1.7    0.1    6.0
I    -4.3   -2.2   -4.2
H     3.6   -3.3    4.3
I     5.3    3.5    1.2
H     2.8   -0.4   -6.0
H    -2.8    3.3   -5.0
I    -2.0   -5.7   -2.8
I     0.3   -4.2    5.3
H    -5.6   -2.6    2.8
H     3.7    1.1   -5.7
P    -1.9   -5.7    3.2
P    -1.9   -2.3   -6.3
P     5.5   -4.0   -1.5
H    -0.6    3.9   -5.8
I     2.9   -5.8   -2.6
P    -4.5    5.3   -1.5
C    -1.5    6.2    3.2
H    -6.1   -0.4   -3.8
H    -0.6    6.6    2.8
H     6.8    0.2    2.5
H     7.1    1.7    0.7
I    -2.0    7.0   -0.4
I    -7.0   -2.2   -0.4
I     5.6   -2.2   -4.2
I    -4.3   -5.8    1.2
H    -2.5    2.5   -6.5
I     1.2    5.1    5.3
N    -2.7    3.4   -6.0
H    -1.4    6.0    4.3
I     3.0    7.0   -0.2
H    -1.4    4.2    6.2
P     5.4    5.3   -1.5
H     3.2   -4.0   -5.7
I    -3.8   -4.2    5.3
C    -1.5    4.3   -6.2
I    -1.7    0.4   -7.5
H    -2.5    2.2    7.0
H    -6.9    1.0   -3.4
C    -6.5   -3.1    3.2
H     2.1   -7.6    0.7
H     7.9    0.2    0.4
H    -1.7    5.3   -5.7
P    -1.9   -2.6    7.3
N    -7.0    0.2   -3.9
H    -2.8    7.2    2.0
N     7.9    1.1    0.9
H     2.8   -0.8    7.6
I    -6.7    0.8    4.5
H     2.2   -6.0   -5.0
N    -2.7    7.1    3.0
C     7.8    0.7    2.4
I     5.6   -5.8    1.2
I     7.9   -2.3   -0.2
I     0.6    7.1   -4.2
H     1.9    0.7    8.0
H    -6.7   -4.0    2.7
H    -7.8   -2.0    2.0
H    -3.5    6.6    3.5
H    -7.4   -1.3    3.5
I    -6.9    3.5   -2.8
H    -6.3   -3.3    4.3
H    -3.5    3.9   -6.5
P    -6.9    3.5    3.2
H     7.7    1.7    3.0
C    -1.5    4.0    7.3
N    -7.6   -2.2    3.0
H    -6.2    1.1   -5.7
N    -2.7    3.1    7.5
H    -0.6    3.5    7.8
H     3.8   -7.6    0.8
H     1.5   -5.4   -6.5
H    -7.8   -0.5   -3.7
H    -3.5    3.5    7.0
C     2.8    0.2    8.1
H     2.8   -7.6    3.0
C     3.4   -4.9   -6.2
I    -4.7    5.1    5.3
H    -1.4    4.5   -7.3
H     3.7    0.8    7.8
N     2.3   -5.8   -6.0
N     2.9   -8.2    0.9
H     3.6   -5.1    6.2
C    -7.1    0.5   -5.4
H     8.8    1.6    0.8
I     7.9    3.5   -2.6
I     5.2    5.1    5.3
H     4.3   -5.4   -5.8
H     8.6    0.1    2.7
H    -2.5    8.0    3.5
I     6.1   -4.2    5.3
I     0.3   -3.9   -8.3
H    -2.0   -8.3   -3.4
H     1.5   -5.7    7.0
H    -7.1   -0.4   -6.0
H     7.1    3.3   -5.0
C     2.8   -8.5    2.4
I    -4.6    7.0   -4.2
H     3.6   -4.8   -7.3
H    -1.7    4.9    7.8
H    -2.8    2.9    8.5
I    -7.0   -5.8   -2.6
H     3.2   -4.3    7.8
H    -8.4   -2.6    3.5
H     3.0   -9.1    0.4
H     1.9   -9.1    2.5
I     3.2    1.1   -9.0
H    -6.7   -4.0   -5.7
C     3.4   -5.3    7.3
H    -5.6   -5.4   -5.8
H    -1.1    8.9   -3.8
H     2.5   -6.8   -6.5
I     5.3    7.0   -4.2
I     0.4   -2.6    9.4
I    -1.7   -8.5    4.5
H    -6.1   -7.6    0.8
H    -8.0    1.1   -5.5
P     3.0    7.0   -6.3
I    -6.9    7.0   -0.2
H     6.4    6.6    3.5
I    -3.8   -3.9   -8.3
H     6.4    3.9   -6.5
H     3.0    9.5    0.4
I    -9.3    3.4    1.2
H    -2.8    8.8   -3.7
I     1.2    5.4   -8.3
H     1.9    9.4    2.5
N     2.3   -6.2    7.5
N     2.9   -0.2    9.6
H    -1.3   -8.2   -5.7
N     7.2    3.4   -6.0
H    -6.2    0.8    7.8
H     8.2    5.2    2.7
H     2.1   -0.8    9.9
N    -2.0   -9.1   -3.9
H     6.4    3.5    7.0
I     8.2    0.1    6.0
I     7.9   -5.7   -2.8
H     7.4    2.5   -6.5
H     3.7   -9.1    2.7
C    -6.5   -4.9   -6.2
H    -6.3   -5.1    6.2
H     2.5   -7.1    7.0
P     3.0    6.6    7.3
H     7.1    7.2    2.0
H     3.6   -2.9   -9.3
P     8.0   -5.7    3.2
H    -3.1   -8.2   -5.5
H     2.5   -0.9  -10.0
H     1.5   -2.3  -10.0
P    -9.5   -4.0   -1.5
P     8.0   -2.3   -6.3
H    -7.1   -0.8    7.6
N    -2.0    9.4   -3.9
H     3.7    9.4    2.7
H    -1.1   -9.7   -3.8
H     7.4    2.2    7.0
H     3.8   -0.7    9.7
C    -2.1   -8.8   -5.4
N     7.2    7.1    3.0
I     7.9    7.0   -0.4
H     4.3   -5.7    7.8
I    -4.3   -2.5    9.3
H     3.0    0.7   10.2
I    -9.5   -2.3   -4.2
C     2.8   10.0    2.4
H    -6.3   -4.8   -7.3
H    -2.8   -9.7   -3.7
N    -7.0   -8.2    0.9
N     2.9   10.3    0.9
C    -7.1    0.2    8.1
H     2.2   -6.3    8.5
H    -7.1   -7.6    3.0
N     7.2    3.1    7.5
P    -9.4    5.3   -1.5
H    -7.8   -7.6    0.7
H    -2.2    8.8   -6.0
N     2.3   -1.9  -10.5
C     8.4    6.2    3.2
I    -4.7    5.4   -8.3
H    -1.3    0.5  -10.9
H    -2.2    2.0  -10.6
I     6.1   -3.9   -8.3
H    -2.0   10.3   -3.4
H    -7.7   -6.0   -5.0
C    -6.5   -5.3    7.3
I     8.2    0.4   -7.5
P     8.0   -2.6    7.3
H    -5.6   -5.7    7.8
I    -1.7   10.1    4.5
I    10.5    3.4    1.2
H    -6.7   -4.3    7.8
I     5.6   -2.5    9.3
H     2.1   11.0    0.7
P    10.3   -4.0   -1.5
I    -9.5   -5.8    1.2
I     5.2    5.4   -8.3
H   -11.0    1.6    0.8
C     3.4   -2.8  -10.3
I    -6.7    1.1   -9.0
H     8.5    6.0    4.3
H     8.2    5.3   -5.7
H    -1.4    6.3   -9.3
C     8.4    4.3   -6.2
I    10.3   -2.3   -4.2
N    -7.6   -5.8   -6.0
C    -7.1   -8.5    2.4
H    -8.0    0.7    8.0
C    -2.1    9.8   -5.4
H     8.5    4.2    6.2
I    -8.7    5.1    5.3
H    -2.5  -10.6    3.5
H    -6.2   -9.1    2.7
C    -2.1    1.1  -11.1
P     3.0    3.9  -10.3
I     3.2   -9.2    6.0
H    -6.9   -9.1    0.4
H    -3.1    0.5  -11.0
H     7.1    2.9    8.5
H     7.4    8.0    3.5
H   -11.2    0.1    2.7
H    -6.1   -0.7    9.7
I     0.6    6.7    9.3
I     3.0    3.2   10.7
I    -2.0    3.1   10.9
H    -6.3   -2.9   -9.3
H     3.8   10.9    0.8
H    -2.2    8.5    7.6
H     9.3    3.9   -5.8
H    -6.2    9.4    2.7
H    -2.2   -9.7   -6.0
I     3.2    9.4    6.0
P    -6.9    7.0   -6.3
H    -1.3   -8.5    7.8
H     2.8   10.9    3.0
I    -2.0  -11.5   -0.4
I    -9.6   -4.2    5.3
H     9.3    6.6    2.8
H    -6.9    9.5    0.4
P    10.4    5.3   -1.5
P    -1.9   -5.4  -10.3
H     4.3   -2.3  -10.8
H    -2.8  -11.3    2.0
C     8.4    4.0    7.3
H     2.2   -1.7  -11.5
I    10.3   -5.8    1.2
N    -7.0   -0.2    9.6
H     7.1    8.8   -3.7
H     3.2   -3.7  -10.8
H   -11.9    0.2    0.4
H    -1.3   10.4   -5.7
H     7.9   -8.3   -3.4
I     3.0  -11.6   -0.2
H    -7.4   -6.8   -6.5
H    -8.4   -5.4   -6.5
N   -11.9    1.1    0.9
P    -6.9    6.6    7.3
H     6.8   -8.2   -5.5
I     3.2   -8.8   -7.5
H     8.5    4.5   -7.3
H    -3.1   10.3   -5.5
H    -3.1   -8.6    8.0
I   -11.9   -2.3   -0.2
N    -2.7  -11.5    3.0
H    11.4   -2.6    3.5
I    10.2   -4.2    5.3
H    -0.6  -11.9    2.8
I     0.6  -11.5   -4.2
I    -1.7   -8.2   -9.0
C    -1.5    6.5  -10.3
H    -1.7    5.6  -10.8
C   -12.0    0.7    2.4
H    -6.9    0.7   10.2
H    -5.6   -2.3  -10.8
N    -7.6   -6.2    7.5
H     8.2    4.9    7.8
I    -4.6    6.7    9.4
I    -9.3    7.1   -4.2
H    -8.0   -9.1    2.5
H    12.1   -2.0    2.0
H    -8.4   -5.7    7.0
C    -2.1   -9.1    8.1
H    -7.4   -7.1    7.0
I    -2.0   -6.1   10.7
C    -6.5   -2.8  -10.3
C    -7.1   10.0    2.4
H    -7.4   -0.9  -10.0
N    -7.0   10.3    0.9
H    -6.1   10.9    0.8
H   -12.1    1.7    3.0
H    -7.8   -0.8    9.9
H     7.1   -9.7   -3.7
H     9.3    3.5    7.8
H    12.0   -0.5   -3.7
H   -10.5    3.9   -5.8
I     8.2   -8.5    4.5
C    -2.1    9.4    8.1
H    -8.0    9.4    2.5
I     5.3    6.7    9.4
I   -11.9    3.5   -2.6
N     7.9   -9.1   -3.9
I     3.2    9.7   -7.5
H    -3.5    7.0  -10.0
H    -2.2  -10.0    7.6
H   -10.5    6.6    2.8
N    12.2   -2.2    3.0
P     0.4   -4.4   12.0
H    -1.3   10.0    7.8
N    -2.0    1.4  -12.6
I    -6.7   -9.2    6.0
H    -0.6    7.0  -10.8
H   -12.7    1.7    0.7
I     0.4   12.8    1.2
I     2.9   -6.1   10.9
C    -1.5  -12.4    3.2
H    -3.5  -11.9    3.5
C     7.8   -8.8   -5.4
N     7.9    9.4   -3.9
I     0.6    3.8  -12.3
H    -1.1    2.0  -12.7
H    12.4   -1.3    3.5
P    -6.9    3.9  -10.3
H     6.8    0.5  -11.0
I    -6.7    9.4    6.0
H    -1.1    8.5    9.7
P     0.5    4.9   12.0
H     8.8    8.9   -3.8
H   -11.6    5.2    2.7
I    12.8   -2.2   -0.4
H    11.8    1.1   -5.5
I   -11.6    0.1    6.0
N    -7.6   -1.9  -10.5
I    -4.6  -11.6   -4.2
N    -2.7    7.4  -10.5
H     2.8   -7.3  -10.6
H    -7.8   -6.3    8.5
I    -6.9    3.2   10.7
H     8.6   -8.2   -5.7
H    -3.1   10.0    8.0
I    -8.7    5.4   -8.3
H     7.7    8.8   -6.0
H   -13.0    0.2    2.5
I    -9.6   -3.9   -8.3
H     7.7    2.0  -10.6
H    -6.7   -3.7  -10.8
I    -2.0   12.8   -2.8
H    -2.5    8.3  -10.0
I    11.1    5.1    5.3
H    -2.8    8.5    9.9
H    -8.4   -2.3  -10.0
H    -1.4  -12.5    4.3
H    -2.8    2.0  -12.9
H    -2.0    0.5  -13.2
I     2.9   12.7   -2.6
H    12.9    1.0   -3.4
P    -1.9   12.8    3.2
C   -11.4    6.2    3.2
N    -2.0    9.1    9.6
I    10.5    7.1   -4.2
H    -7.1   10.9    3.0
I    -6.7   -8.8   -7.5
H     7.5  -10.6    3.5
I     5.3  -11.6   -4.2
P     0.5  -13.3   -1.5
H     7.9   10.3   -3.4
H    -7.8   11.0    0.7
