         400
 sphere cut out from bulk 
P    -1.1   -1.2    0.1
I     0.8    1.4    0.5
H    -0.8    2.0   -2.3
I    -0.7   -1.0   -3.1
I     1.4   -3.1    0.6
I    -3.8    0.8   -0.3
H     2.1   -0.2    3.3
I    -1.8   -1.3    3.2
H     2.4   -0.7   -3.2
C    -1.4    2.8   -2.7
H     2.7   -2.2   -2.3
H     3.2   -1.9    1.9
H     0.4    3.0    3.0
H     3.9   -0.4    1.7
H    -1.9    3.2    2.2
H    -1.5    3.6   -2.0
H    -2.4    2.4   -3.0
N     3.7   -1.1    2.4
C     2.9   -1.6   -3.2
P     3.3    3.3    0.0
C     3.0   -0.6    3.6
I    -3.1   -3.7   -0.3
N    -0.2    3.9    3.1
H    -4.4   -0.7   -2.3
H     0.2   -4.5    2.4
C    -1.6    3.6    3.2
H     0.1    4.5    2.4
H     4.6   -0.7   -2.3
N    -0.7    3.3   -3.9
H     0.2    3.7   -3.7
H    -1.8    2.9    4.0
I     5.2    0.8   -0.3
H    -0.5    2.6   -4.6
H    -4.3   -1.5    2.7
H     2.7   -2.2   -4.1
H    -5.1   -0.4    1.7
H     2.9   -1.4    4.3
I     2.7    3.5   -3.1
H     3.7    0.2    4.1
N     4.4   -1.3   -3.1
H    -4.1   -2.1   -3.1
H     4.7   -1.5    2.7
N    -4.6   -1.3   -3.1
H     0.2    4.3    4.0
I     3.7    3.2    3.2
N    -5.3   -1.1    2.4
H    -2.1   -4.4    3.3
H    -4.4   -0.7   -3.9
H    -1.5   -5.4   -2.0
N    -0.1   -5.1    3.1
H    -2.1    4.6    3.3
I     1.4    5.9    0.6
H    -1.3    4.1   -4.4
H     4.6   -0.7   -3.9
I     0.7    1.4    6.0
H     0.2   -4.7    4.0
H     5.0   -2.1   -3.1
I    -3.2    5.4   -0.3
H    -5.8   -1.9    1.9
H     0.3   -5.3   -3.7
C    -1.6   -5.4    3.2
P    -1.1   -1.1   -6.3
H    -1.9   -5.8    2.2
P    -1.2   -1.2    6.3
P    -5.7    3.3    0.0
P     3.4   -5.7    0.0
H    -5.4    0.2    4.1
H    -1.3   -5.0   -4.4
H     0.4   -6.0    3.0
I     0.8    1.4   -6.6
I     1.2   -3.2    5.9
I     2.8   -5.5   -3.1
C    -1.3   -6.2   -2.7
N    -0.7   -5.7   -3.9
I     5.9   -3.7   -0.3
I    -3.7    0.8   -5.8
I    -5.3    3.2    3.2
C    -6.0   -0.6    3.6
C    -6.1   -1.6   -3.2
H    -6.3   -2.2   -2.3
H    -0.7   -7.0   -2.3
H    -6.7   -0.7   -3.2
I    -3.0   -3.7   -5.7
H    -1.8   -6.1    4.0
I     1.4   -3.2   -6.7
I     3.8   -5.8    3.2
H    -6.1   -1.4    4.3
H     2.6    6.8   -2.3
H    -2.3   -6.6   -3.0
H     6.7    2.4   -3.0
H    -6.9   -0.2    3.3
I     0.8   -7.6    0.5
H    -6.3   -2.2   -4.1
I    -3.8    0.8    6.8
I    -6.3    3.5   -3.1
P     3.4    3.4   -6.2
I     5.8    5.4   -0.3
H    -0.5   -6.4   -4.6
P     3.3    3.3    6.4
I     5.3    0.8   -5.8
P    -1.2    7.9    0.1
P     7.9   -1.2    0.1
P    -5.6   -5.7    0.0
I     7.2   -1.3    3.2
H     3.1    7.2    1.9
H     7.1    3.2    2.2
I    -7.6   -3.1    0.6
I    -8.2    1.4    0.5
I     1.2    5.8    5.9
H     2.7    6.8   -4.1
H    -0.7    2.6    8.0
I    -3.2   -3.7    6.9
I    -3.1    5.3   -5.7
I    -5.2   -5.8    3.2
I    -1.9    7.7    3.2
H     7.5    3.6   -2.0
C     2.9    7.4   -3.2
C     7.6    2.8   -2.7
I    -0.7    8.0   -3.1
I     5.2    0.8    6.8
H    -4.1    6.9   -3.1
H     7.2    2.9    4.0
H     8.3    2.0   -2.3
C     7.4    3.6    3.2
I    -6.2   -5.5   -3.1
H     6.9   -4.4    3.3
H     3.0   -1.4   -8.3
H     6.9    4.6    3.3
I     8.3   -1.0   -3.1
I     1.3    5.8   -6.7
P    -5.6    3.4   -6.2
H     4.9    6.9   -3.1
N     3.7    7.9    2.4
I     6.0   -3.7   -5.7
I    -3.7   -8.3   -0.3
H    -4.4    7.5    2.7
P     3.5   -5.6   -6.2
P    -5.7    3.3    6.4
H     2.6   -2.2    8.5
P     3.4   -5.7    6.4
H     2.3    8.3   -3.2
H     4.6    7.5    2.7
H     2.8    7.6    4.3
I    -3.2    5.3    6.9
H    -1.4    4.0    8.2
H    -1.7    3.0   -8.6
N    -0.9    3.3    8.7
H     3.8    0.2   -8.5
N     4.3    7.7   -3.1
H    -5.9    7.2    1.9
H     7.1   -5.8    2.2
H     7.5   -5.4   -2.0
C     3.2   -0.5   -9.0
H     2.2   -0.1   -9.3
N    -4.7    7.7   -3.1
H    -6.4    6.8   -2.3
I    -0.8   -1.1    9.5
H     3.9    8.6    1.7
H     0.3    4.3   -8.6
H    -8.7    3.0    3.0
I    -1.7   -1.3   -9.4
H     2.0    8.8    3.3
C     3.0    8.4    3.6
H     0.1    3.7    8.9
H    -4.5    8.3   -2.3
I    -7.7    5.9    0.6
C     7.4   -5.4    3.2
H     2.2   -0.7    9.4
H     4.6    8.3   -2.3
H    -1.4   -5.0    8.2
H     7.7    4.1   -4.4
I     5.8   -3.7    6.9
N     8.3    3.3   -3.9
I     0.7   -7.7    6.0
H     0.4   -4.7   -8.6
H     4.5   -0.7    8.7
H    -4.5   -0.7    8.7
I     5.3   -8.3   -0.3
N    -5.3    7.9    2.4
I     5.9    5.3   -5.7
I     9.8    1.4    0.5
H     6.7   -6.6   -3.0
C     2.8   -1.7    9.4
H     8.5    2.6   -4.6
H     2.1   -9.2    3.3
H    -5.2    0.2   -8.5
P    -5.5   -5.6   -6.2
P     7.8   -1.2    6.3
I     0.9   -7.6   -6.6
C    -6.1    7.4   -3.2
H     0.5    3.0   -9.6
P    -1.3    7.8    6.3
P    -1.2    7.9   -6.3
P     7.9   -1.1   -6.3
N     8.9    3.9    3.1
H    -6.3    6.8   -4.1
H     7.7   -5.0   -4.4
P   -10.1   -1.2    0.1
H    -5.1    8.6    1.7
H    -2.5    2.3    9.6
H    -8.9   -4.5    2.4
H    -4.4    8.3   -3.9
H    -9.8    2.0   -2.3
P    -1.1  -10.2    0.1
I    -9.7   -1.0   -3.1
C    -1.5    3.7   -9.4
H    -8.8    3.7   -3.7
C     7.7   -6.2   -2.7
P    -5.6   -5.7    6.4
N    -0.0    3.9   -9.5
H     7.2   -6.1    4.0
H    -8.9    4.5    2.4
H     9.4    3.0    3.0
H     4.6    8.3   -3.9
H    -6.0   -1.4   -8.3
H    -0.6   -6.5    8.0
I    -7.8   -3.2    5.9
H     4.0   -9.4    1.7
I    -8.3    1.4    6.0
C    -1.5    2.7    9.9
H     3.7   -8.8    4.1
H     0.1   -5.3    8.9
I     5.8    5.3    6.9
N    -9.2    3.9    3.1
N    -0.8   -5.7    8.7
H    -2.0   -4.4   -9.3
H     9.1    4.5    2.4
I     0.7   10.4    0.5
I     2.6    3.5    9.5
N     4.2   -1.3    9.5
H     9.2   -4.5    2.4
H     2.4   -9.7   -3.2
I    -3.8    9.8   -0.3
I    -0.6  -10.1   -3.1
H    -2.0    4.6   -9.3
H    -0.9    2.0   10.3
H    -4.2   -2.2    9.5
H     9.2    3.7   -3.7
H    -8.8    4.3    4.0
I    -8.2    1.4   -6.6
I    -7.6   -3.2   -6.7
I     3.9    3.3   -9.4
H    -1.7   -6.0   -8.6
I    -3.6   -8.2   -5.8
N    -4.8   -1.3    9.5
H     3.6    9.2    4.1
H    -6.2    7.6    4.3
C     3.1   -9.6    3.6
C    -5.8   -0.5   -9.0
H    -8.8   -4.7    4.0
N     8.9   -5.1    3.1
N     0.0   -5.1   -9.5
H    -5.0   -9.4    1.7
N     8.3   -5.7   -3.9
H     4.8   -2.2    9.5
H    -8.8   -5.3   -3.7
H     2.6   -2.3   10.3
H    -4.2   -1.5   -9.9
I    10.4   -3.1    0.6
H    -6.4   -2.2    8.5
H    -8.6   -6.0    3.0
H     9.2    4.3    4.0
H    -9.6    2.6   -4.6
H    -4.4   -9.8   -2.3
N    -9.1   -5.1    3.1
N     3.9   -1.1  -10.2
C    -1.4   -5.3   -9.4
C    -6.0    8.4    3.6
I     7.2    7.7    3.2
I    -1.8  -10.4    3.2
N    -9.7    3.3   -3.9
H     4.7   -9.8   -2.3
H    -1.8    3.2  -10.4
I     5.2    9.8   -0.3
H    -5.3   -8.8    4.1
C   -10.4    2.8   -2.7
H     8.3   -7.0   -2.3
N     3.8  -10.2    2.4
H     4.8   -1.5   -9.9
P     7.9    7.9    0.1
H     9.2   -4.7    4.0
H    -6.7    8.3   -3.2
H     0.3   -4.4  -10.2
H     2.5    6.8    8.5
I    -5.1    3.3   -9.4
I    -8.2   -7.6    0.5
H     0.2    4.6  -10.2
H     9.3   -5.3   -3.7
H     4.5   -0.8   10.3
H    -0.8   11.0   -2.3
H     3.3   -1.8  -10.7
H   -10.5    3.6   -2.0
H    -4.5   -0.8   10.3
I     2.7   -5.5    9.5
I    -3.8   -8.2    6.8
H    -1.7    3.6   10.6
H    -4.3   -9.7   -3.9
I   -10.8   -1.3    3.2
H     0.5   -6.0   -9.6
I    -7.8    5.8    5.9
I     5.4   -8.2   -5.8
C    -6.2   -1.7    9.4
H    -5.4    9.2    4.1
N    -5.1   -1.1  -10.2
I     9.7    1.4    6.0
H     4.7   -9.7   -3.9
C     3.0  -10.6   -3.2
H     3.2  -10.9    1.9
H    -6.8   -0.1   -9.3
H     9.4   -6.0    3.0
H    11.1   -0.2    3.3
H   -10.9    3.2    2.2
H     4.1   -0.3  -10.9
H     8.5   -6.4   -4.6
N     4.4  -10.3   -3.1
H    -6.8   -0.7    9.4
H     3.0    7.7   -8.3
H     2.9  -10.4    4.3
C   -10.6    3.6    3.2
N    -5.2  -10.2    2.4
I     3.9   -5.7   -9.4
H    -4.3  -10.5    2.7
H     7.3    3.0   -8.6
N    -4.6  -10.3   -3.1
I    -7.7    5.8   -6.7
H    -7.0    8.8    3.3
H     2.7  -11.2   -2.3
H    11.4   -0.7   -3.2
C    -1.5   -6.3    9.9
H     8.3    2.6    8.0
H     6.5    2.3    9.6
C    -5.9   -9.6    3.6
H     4.7  -10.5    2.7
H     7.6    4.0    8.2
N    -9.7   -5.7   -3.9
I     8.3    8.0   -3.1
I     5.3   -8.2    6.8
I     9.8    1.4   -6.6
H   -10.8    2.9    4.0
H   -10.3    4.1   -4.4
I    10.4    5.9    0.6
H    -5.0   -0.3  -10.9
H    -6.9   -9.2    3.3
H    -2.4   -6.7    9.6
P   -10.1   -1.1   -6.3
H   -10.5   -5.4   -2.0
I    -6.4    3.5    9.5
P    -1.1  -10.2   -6.3
H   -11.4    2.4   -3.0
I     7.3   -1.3   -9.4
I    -3.7    9.8   -5.8
I     0.6   10.4    6.0
H    -2.4   11.4   -3.0
H    -1.7   -5.8  -10.4
P    -1.2  -10.2    6.3
H    -1.6   -5.5   10.6
P   -10.3   -1.2    6.3
H    11.7   -2.2   -2.3
I    -5.1   -5.7   -9.4
H    -6.6   -9.7   -3.2
H    -9.7   -7.0   -2.3
C    -1.4   11.8   -2.7
I     0.9    1.4  -12.1
H   -10.3   -5.0   -4.4
H    -5.7   -1.8  -10.7
I     1.5  -12.1    0.6
H     2.8  -11.2   -4.1
H    -4.0  -11.2   -3.1
C     2.7    7.4    9.4
H     7.6   -5.0    8.2
I    10.2   -3.2    5.9
I    -1.7    7.7   -9.4
C   -10.6   -5.4    3.2
H    -9.5   -6.4   -4.6
I     0.8   10.4   -6.6
N     8.2    3.3    8.7
H     0.3   12.0    3.0
C   -10.4   -6.2   -2.7
H    -6.5   -2.3   10.3
H   -11.1   -4.4    3.3
H    -4.2    6.8    9.5
I    -0.9    7.9    9.5
C    11.9   -1.6   -3.2
H     7.1   -4.4   -9.3
I     9.8   -7.6    0.5
H    12.2   -1.9    1.9
H    -5.8  -10.9    1.9
H   -11.1    4.6    3.3
H     7.0    4.6   -9.3
H    -0.6   11.6   -4.6
I    -3.9    9.8    6.8
I     1.5   -3.1  -12.1
H    -0.8   -7.1   10.3
H   -10.9   -5.8    2.2
H    -2.0   12.2    2.2
H     2.5    6.8   10.3
I     5.3    9.8   -5.8
C    12.1   -0.6    3.6
I     8.2   -1.1    9.5
P    -1.0   -1.1  -12.5
