         400
 sphere cut out from bulk 
P     0.6   -1.2   -1.5
I     0.6   -0.9    1.8
I    -1.2    1.5   -1.3
H     1.0    1.7    1.5
H     1.1    3.0    0.4
H    -2.8   -0.3    1.5
N     1.2    2.7    1.4
H    -3.1   -1.5    0.5
I     3.3    0.6   -1.4
N    -3.5   -0.8    1.1
I    -2.1   -2.9   -1.4
H    -0.7    3.3    2.0
H     2.2    2.9    1.6
H    -4.1   -0.2    0.5
C     0.3    3.6    2.2
H     1.1    2.6   -3.7
H     3.8   -2.1    1.6
H     0.5    3.3    3.3
I     2.3   -3.8   -1.4
I     0.8   -1.0   -4.6
H     0.5   -4.3    2.1
H     4.8   -0.2    0.5
H     4.1   -0.8    2.8
H     0.5    4.6    2.1
C    -4.4   -1.6    2.1
H    -3.7   -2.2    2.7
P     0.5   -1.1    5.0
H    -2.4   -1.0   -4.4
C     4.6   -1.6    2.1
H    -0.4    2.4   -4.6
C     0.4    3.1   -4.3
P    -3.8    3.4   -1.4
H    -0.1    3.9   -3.7
I    -1.4    1.5    5.1
I    -4.1    3.3    1.8
N     5.4   -0.8    1.1
H     4.3   -0.3   -3.6
H    -4.8   -0.8    2.8
H    -5.1   -2.1    1.6
I     2.3    5.1   -1.4
C     0.3   -5.4    2.2
I    -5.6    0.6   -1.4
H    -4.6   -0.3   -3.6
H    -0.8   -5.6    2.0
H     1.0   -5.9    0.4
H     5.9   -1.5    0.5
I     3.1    0.8    5.2
C    -3.4   -1.4   -4.9
I     4.9    3.3    1.8
I    -2.1   -3.0    5.0
H     3.6   -0.7   -5.0
H    -0.1   -5.0   -3.7
H     5.2   -2.2    2.7
H    -3.7   -2.3   -4.5
P     5.1    3.4   -1.4
H     6.1   -0.3    1.5
N    -4.5   -0.4   -4.6
N     4.5   -0.4   -4.6
N     1.2   -6.2    1.4
H    -4.2    0.6   -4.9
H     0.5   -5.6    3.3
I    -2.1    6.0   -1.4
H     2.2   -6.0    1.6
I     2.4   -3.7    5.0
N     1.1    3.7   -5.4
H     4.7    0.6   -4.9
I    -3.9    3.3   -4.6
P    -3.9   -5.5   -1.4
H     1.5    3.0   -6.0
H    -3.2   -1.4   -6.0
H     1.8    4.4   -5.1
H     1.8   -4.5   -5.1
I    -4.1   -5.6    1.8
P    -4.0    3.4    5.0
C     0.4   -5.8   -4.3
H     5.3   -2.3   -4.5
H    -5.4   -0.7   -5.0
H     0.4    4.3   -6.0
H     1.0   -7.2    1.5
H     1.1   -6.4   -3.7
H    -6.7    2.9    1.6
I     6.8   -2.9   -1.4
C     5.6   -1.4   -4.9
H     1.1    3.0    6.9
I     5.0    3.3   -4.6
N     1.0   -5.2   -5.4
I     2.4    5.3    5.0
H     0.4   -4.7   -6.0
I    -1.3   -7.4   -1.3
P     5.1   -5.5   -1.4
I     4.8   -5.6    1.8
H    -3.1   -1.5    6.8
I    -6.6   -3.8   -1.4
P     5.0    3.4    5.0
I    -5.8    0.8    5.2
H     6.5   -1.0   -4.4
P     0.6    7.8   -1.5
H     3.8    6.8    1.6
I     7.7    1.5   -1.3
P     0.7   -1.0   -7.9
H    -0.4   -6.5   -4.6
I    -2.1    5.9    5.0
H    -3.0    7.4    0.5
H    -4.3   -0.3    6.8
H    -3.7    6.7    2.7
I    -1.9    0.9   -7.9
I     0.6    8.0    1.8
H    -2.8   -0.2    7.7
H    -7.9    1.7    1.5
N    -3.6   -0.8    7.4
H     4.7   -0.3    6.8
N    -7.7    2.7    1.4
I    -3.9   -5.7   -4.6
I     0.4   -1.3    8.2
H     5.7   -1.4   -6.0
I     2.6    1.6   -7.9
H    -7.9    3.0    0.4
I    -6.6    5.1   -1.4
P    -4.0   -5.6    5.0
P    -8.3   -1.2   -1.5
C     0.9    3.0    8.0
I    -1.2   -3.6   -7.7
H     1.5   -5.9   -6.0
I    -8.4   -0.9    1.8
H     0.6    2.0    8.3
H    -5.1    6.8    1.6
H    -1.0    3.7    7.8
H    -3.6    6.6   -4.5
C    -4.3    7.4    2.1
H     0.1   -4.0    7.9
I     5.0   -5.7   -4.6
N    -3.5    8.1    1.1
I     3.2   -2.9   -7.8
H     5.2    6.7    2.7
C     4.6    7.4    2.1
P     4.9   -5.6    5.0
I     6.8   -3.0    5.0
I    -6.6   -3.7    5.0
H    -7.8    2.6   -3.7
I     3.3   -8.3   -1.4
H     5.8   -1.5    6.8
H     8.2    3.3    2.0
I    -1.4   -7.5    5.1
H     1.0   -6.0    6.9
N    -0.2    4.0    8.3
H    -6.8   -6.0    1.6
N     5.4   -0.8    7.4
I     7.5    1.5    5.1
I     0.8    7.9   -4.6
H    -2.8    8.7    1.5
I     6.8    6.0   -1.4
H     1.9    3.4    8.4
P     0.5    7.8    5.0
H     3.9   -2.1    8.2
H     0.1    4.9    7.9
H    -2.4    7.9   -4.4
P    -3.8    3.5   -7.9
I    -1.2    5.3   -7.7
I    -8.2   -1.0   -4.6
H    -1.1   -5.2    7.8
H     5.9    7.4    0.5
H     4.1    8.1    2.8
H     5.3    6.6   -4.5
C    -8.6    3.6    2.2
C    -3.3    7.6   -4.9
N    -0.2   -4.9    8.3
H    -4.1    8.7    0.5
H    -8.4    3.3    3.3
I    -3.9    3.4    8.2
P     9.5   -1.2   -1.5
H    -8.4   -4.3    2.1
C    -4.3   -1.4    8.6
I     9.5   -0.9    1.8
I    -6.5    5.3    5.0
H    -2.8   -9.2    1.5
H    -7.1    4.4   -5.1
N     5.4    8.1    1.1
H    -8.4    4.6    2.1
H    -4.8    8.1    2.8
P    -8.4   -1.1    5.0
H     6.1   -0.2    7.7
H    -5.0   -2.1    8.2
C     4.7   -1.4    8.6
H    -7.1   -4.5   -5.1
H    -7.9   -5.9    0.4
H     4.8    8.7    0.5
C     0.9   -5.9    8.0
N    -7.8   -6.2    1.4
H     8.5    2.4   -4.6
H    -3.5   -2.0    9.2
I     0.5   -9.9    1.8
P     5.2    3.5   -7.9
H    -7.4    3.0   -6.0
C    -8.5    3.1   -4.3
I    -5.7   -2.9   -7.8
H    -4.2   -9.2    0.5
H     8.2   -5.6    2.0
H     4.2   -0.6    9.2
H    -3.2    7.5   -6.0
I    -5.7   -8.3   -1.4
H    -0.3    4.1    9.3
I     3.1   -8.2    5.2
C     9.2    3.6    2.2
H     9.9    1.7    1.5
P     0.6  -10.1   -1.5
I     3.3    9.6   -1.4
I     5.1    3.4    8.2
I    -6.4    1.6   -7.9
N    -7.9    3.7   -5.4
H     1.8   -5.6    8.4
H     4.3    8.6   -3.6
P    -3.8   -5.5   -7.9
H     3.6    8.3   -5.0
H     4.8   -9.2    0.5
H    -4.7   -0.6    9.2
I     6.9    5.9    5.0
H     8.9    3.9   -3.7
I     3.3    6.0   -7.8
H    -3.8   -1.1   -9.6
I   -10.2    1.5   -1.3
H    -9.7    3.3    2.0
H    -4.6    8.6   -3.6
C    -8.7   -5.4    2.2
H    10.0    3.0    0.4
H    -9.0    3.9   -3.7
N    -3.6   -9.8    1.1
H    -0.4   -4.8    9.3
H     0.9    2.3  -10.2
H     9.4    3.3    3.3
H    -3.1    7.4    6.8
H     9.4   -4.3    2.1
N    10.1    2.7    1.4
H    -4.2   -8.4   -4.9
I     7.0    0.9   -7.9
C     5.6    7.6   -4.9
I    -1.2   10.5   -1.3
I    -3.9   -5.5    8.2
N    -4.4    8.5   -4.6
H    -8.5   -5.6    3.3
H    -9.3    2.4   -4.6
N     4.5    8.5   -4.6
C     9.3    3.1   -4.3
H     9.5    4.6    2.1
P     9.4   -1.1    5.0
I     7.7   -7.4   -1.3
H     6.1    8.7    1.5
H    -0.2    3.7  -10.1
H    -7.8   -6.4   -3.7
H     4.3   -9.2   -3.6
H     4.7   -8.4   -4.9
I     9.7   -1.0   -4.6
H     8.8   -5.0   -3.7
H     1.0   10.7    1.5
H     5.4   -2.0    9.2
H    -7.9   -7.2    1.5
H     0.6   -6.9    8.3
H    -7.9    3.0    6.9
P     5.1   -5.5   -7.9
N    -7.9   -5.2   -5.4
C     9.2   -5.4    2.2
H    -3.1  -10.4    0.5
H     5.1   -1.1   -9.6
H     4.1   -9.8    2.8
H    -4.7   -9.2   -3.6
H    -9.0   -5.0   -3.7
I     0.7   -9.9   -4.6
H    10.0    2.6   -3.7
H    -5.3    8.3   -5.0
I     2.5   -7.4   -7.9
I     5.0   -5.5    8.2
H     6.1   -9.2    1.5
I     0.6   -1.1  -11.1
H     6.5    7.9   -4.4
C     0.3    3.0  -10.7
H    -2.5  -10.0   -4.4
I    -5.6    9.6   -1.4
P     0.7    7.9   -7.9
H     5.7    7.5   -6.0
N     5.4   -9.8    1.1
P     0.5  -10.0    5.0
C    -8.6   -5.8   -4.3
I     0.4    7.6    8.2
H    -4.9   -9.8    2.8
H    -7.4   -5.9   -6.0
H    -8.5    4.3   -6.0
I    -5.9   -8.2    5.2
N     4.4   -9.3   -4.6
N    -4.5   -9.3   -4.6
I    -5.7    6.0   -7.8
H    -0.2   -5.2  -10.1
H    -9.7   -5.6    2.0
H     3.9    6.8    8.2
C    -4.0   -0.8  -10.6
H     3.5   -9.6   -5.0
H    -3.8    0.2  -10.8
I     3.1    9.7    5.2
I    -1.9   -8.1   -7.9
H     9.4   -5.6    3.3
H    -8.6   -4.7   -6.0
P    -8.3   -1.0   -7.9
P     0.4   -1.1   11.4
P    -8.3    7.8   -1.5
I     7.7   -3.6   -7.7
H    -4.2    9.5   -4.9
I   -11.0   -2.9   -1.4
H    -7.1    3.4    8.4
H    -0.5    2.4  -11.3
H    -2.1   -1.5  -11.3
N    -3.5    8.1    7.4
C    -4.4  -10.5    2.1
I   -10.3    1.5    5.1
H    10.0   -5.9    0.4
H     3.9   -1.0  -10.9
H     5.8    7.4    6.8
H    11.1    2.9    1.6
C     4.5  -10.5    2.1
I    -1.4   10.4    5.1
H     8.5   -6.5   -4.6
I    -2.3    0.5   11.4
C    -8.0    3.0    8.0
I    -8.3    8.0    1.8
H     7.9    3.7    7.8
H     4.8    9.5   -4.9
C     4.9   -0.8  -10.6
I     2.2    1.5   11.4
I     7.5   -7.5    5.1
C     9.3   -5.8   -4.3
H    -5.0    6.8    8.2
H     3.8  -11.1    1.6
H    -4.2    8.7    6.8
N     1.2   11.7    1.4
H   -11.7   -0.3    1.5
C    -3.4  -10.3   -4.9
H     9.3    4.3   -6.0
N    10.1   -6.2    1.4
H    -8.3    2.0    8.3
I    -8.6   -1.3    8.2
H     5.2    0.2  -10.8
I    11.2   -3.8   -1.4
H     5.8  -10.4    0.5
H     1.1   11.9    0.4
N    10.0    3.7   -5.4
H     4.7    8.7    6.8
N    -3.1   -1.6  -11.5
H    -3.5    6.9    9.2
H    -2.8    8.8    7.7
H     9.3   -4.7   -6.0
H    -5.0   -1.0  -10.9
H    -7.9   -6.0    6.9
H    -3.8  -11.2    2.7
I    -2.1  -11.8   -1.4
H    -5.4   -9.6   -5.0
H   -12.0   -1.5    0.5
H     1.1   11.5   -3.7
H    -3.3   -2.6  -11.4
I     7.8    5.3   -7.7
C    -4.2    7.5    8.6
H     0.9   -6.6  -10.2
H     2.2   11.9    1.6
I    -1.4   -3.9   11.5
I    -3.7    3.6  -11.1
H     1.8    4.3  -11.3
H    -4.3   -9.2    6.8
H     7.8   -5.2    7.8
H   -11.4   -1.0   -4.4
N     5.4    8.1    7.4
I     3.0   -3.0   11.5
I    -8.1    7.9   -4.6
C     0.3   -5.9  -10.7
H    -2.9   -9.1    7.7
H    -0.4   11.4   -4.6
H    -9.3   -6.5   -4.6
C     4.7    7.5    8.6
H    -5.2  -11.1    1.6
I    12.2    0.6   -1.4
H     9.9   -7.2    1.5
H     1.8   -4.6  -11.3
H    -7.1   -5.6    8.4
N     1.1    3.7  -11.7
H     4.6   -9.2    6.8
H    -3.3  -10.3   -6.0
P     9.5    7.8   -1.5
I    -5.8    9.7    5.2
H    10.0   -6.4   -3.7
H    10.4    3.0   -6.0
P     9.6   -1.0   -7.9
H    -0.7   12.3    2.0
I    11.3    5.1   -1.4
I   -11.0   -3.0    5.0
I     9.3   -1.3    8.2
N    10.0   -5.2   -5.4
H    10.0    3.0    6.9
P    -8.4    7.8    5.0
P    -4.0    3.2   11.4
H    -8.9   -4.0    7.9
I    -6.4   -7.4   -7.9
N   -12.5   -0.8    1.1
I     9.5    8.0    1.8
I    -1.3    5.0   11.5
H     5.2  -11.2    2.7
