         400
 sphere cut out from bulk 
I     1.7   -1.0   -1.1
P     1.7    1.3    1.2
I    -0.8   -0.7    2.3
I    -0.8    2.9   -0.1
P    -0.8   -2.9   -0.1
I    -3.2   -1.0   -1.1
P    -3.2    1.2    1.3
H     0.8    3.0   -3.3
I     4.1   -0.7    2.3
H     2.3   -1.6   -3.9
H    -2.5   -1.2   -4.0
I     1.7   -4.5    1.2
H     2.6    3.1   -3.0
H    -2.4    4.1   -1.7
I     4.1    2.8   -0.1
H     1.4    4.6   -1.5
I     1.7    2.7    4.0
P     4.2   -2.9   -0.1
C     1.7    3.6   -3.4
H     0.8   -2.5   -4.5
H    -3.4    2.5   -3.2
H     0.1    0.2    5.3
I    -0.9   -4.5   -2.8
C     1.8   -2.1   -4.8
H     0.9   -0.3   -5.5
H    -1.7    0.5    5.3
I    -3.2   -4.5    1.2
N     1.5    4.8   -2.5
I    -0.7    1.5   -5.4
I    -3.3    2.7    4.0
N    -3.2    4.4   -2.2
C    -0.8    0.6    5.9
C    -3.3    3.6   -3.5
H    -2.4    3.7   -4.1
C    -3.1   -1.4   -4.9
H    -0.7   -5.4    2.8
N     1.6   -1.1   -5.8
H    -4.1    4.3   -1.7
H     0.7    5.4   -2.8
I    -5.7   -0.7    2.3
H     1.8    4.0   -4.4
H     0.0    5.1    3.7
I    -5.7    2.8   -0.1
H     4.2   -0.8    4.7
P    -5.7   -2.9   -0.1
H    -0.6    1.6    6.1
H    -4.1   -0.9   -4.9
H     2.5   -2.9   -5.2
H    -2.6   -1.1   -5.8
H     2.4    5.5   -2.6
H    -2.5   -3.4   -4.9
H     2.5   -0.5   -6.0
H    -1.8    5.2    3.7
H    -4.0   -3.2   -4.2
H    -3.1    5.4   -2.5
N    -3.4   -2.9   -5.0
I     6.6   -1.0   -1.1
I     4.2   -4.5   -2.8
P     6.6    1.2    1.3
H     0.1   -4.6    5.1
C    -0.9    5.8    3.7
H     3.2    1.0    6.1
H     1.2   -1.5   -6.7
H    -1.5   -4.6    5.0
H    -4.2    3.9   -4.1
H     0.9   -6.4   -2.8
I     4.1    1.4   -5.5
H     3.3   -1.4    6.1
H     3.3    4.4    4.5
H    -0.8    6.5    2.8
C    -0.7   -6.0    3.7
H    -1.1   -1.2    7.0
N     4.2   -0.9    5.8
N    -0.9   -0.2    7.1
N    -0.7   -5.2    4.9
H     2.5   -6.4   -2.6
H     3.3   -5.0    4.2
H     5.8    4.3   -1.7
H    -5.7   -0.8    4.7
H    -2.9   -6.4   -2.5
I     1.7   -3.2    6.6
I     1.5    7.3    1.2
H     1.6   -7.2   -1.5
H     5.7   -0.9   -4.9
H     6.4    2.5   -3.2
N     1.7   -7.0   -2.5
C     4.1    0.5    6.4
H     0.2   -6.7    3.7
H     4.2   -5.7    2.9
H    -3.9   -3.1   -5.9
I    -5.6   -4.5   -2.8
H    -0.1   -0.1    7.7
H    -1.6   -6.7    3.7
H     4.0    6.1    2.9
I    -1.0    7.3   -2.8
H    -4.9    1.1    6.1
H    -4.8   -1.4    6.1
H     5.9   -3.2   -4.2
H    -1.7    0.2    7.7
I    -3.1   -3.1    6.6
H     5.0    1.1    6.1
C     4.2   -5.5    4.0
H     5.7    3.9   -4.1
H     5.0   -1.4    6.1
H    -4.9    4.5    4.5
H     4.9    4.5    4.5
N     4.1    5.0    4.7
H    -4.7   -4.9    4.2
I    -5.7    1.4   -5.5
I     6.6   -4.5    1.2
I     6.5    2.7    4.0
N    -5.7   -0.9    5.8
I    -3.4    7.3    1.2
C     6.5    3.6   -3.5
H     5.1   -4.9    4.2
N     6.6    4.4   -2.2
H    -2.2   -7.8   -1.7
H    -0.7   -5.9    5.8
N    -0.9    6.6    4.9
I    -8.2   -1.0   -1.1
P    -8.2    1.3    1.2
N    -3.1   -7.4   -2.2
H    -0.9    6.0    5.8
H     7.3   -1.2   -4.0
C     6.7   -1.4   -4.9
H    -7.3    3.1   -3.0
C     4.0    6.3    4.0
H     4.1    0.4    7.5
H    -5.6   -5.7    2.9
H     7.4    4.1   -1.7
C    -5.7    0.5    6.4
H     3.1    6.8    4.2
N     6.4   -2.9   -5.0
I    -0.4   -3.0   -8.1
H    -3.9   -7.6   -1.7
H    -7.6   -1.6   -3.9
P    -0.7    3.1   -8.1
H     4.1    5.2    5.8
I     4.1    7.3   -2.8
H    -0.0    7.2    5.1
C    -5.6   -5.5    4.0
I     1.8    4.9   -7.1
H    -5.8    6.1    2.9
H     5.9   -3.1   -5.9
P    -0.9    8.9   -0.1
H    -1.7    7.2    5.0
H     6.8    5.4   -2.5
I    -0.6   -9.0   -0.1
N    -5.7    5.0    4.7
H    -6.5   -1.4    6.1
C     1.9   -8.2   -3.4
H    -6.7    1.0    6.1
H    -6.6    4.4    4.5
I    -3.1    5.0   -7.1
H     2.0   -7.9   -4.4
H     7.4    3.7   -4.1
H    -6.5   -5.0    4.2
N     4.3   -6.8    4.7
H     3.4   -7.4    4.5
H    -2.2   -8.1   -4.1
H     7.3   -1.1   -5.8
I     9.1   -0.7    2.3
I    -8.1   -4.5    1.2
H     0.9   -8.8   -3.3
H    -7.3   -2.9   -5.2
C    -5.8    6.3    4.0
H    -5.8    0.4    7.5
H    -4.9    6.9    4.2
H     4.9    6.9    4.2
I    -8.2    2.7    4.0
H     7.3   -3.4   -4.9
I     1.5    1.4    9.3
I     9.1    2.9   -0.1
C    -3.1   -8.3   -3.5
P     9.1   -2.9   -0.1
H    -7.4   -0.5   -6.0
C    -8.2    3.6   -3.4
C    -8.0   -2.1   -4.8
H    -7.5    5.5   -2.6
H    -5.7    5.2    5.8
H     2.7   -8.8   -3.0
P     4.3    3.0   -8.2
I     4.5   -3.1   -8.0
I    -5.8    7.3   -2.8
H     8.1    0.5    5.3
H    -8.4    4.6   -1.5
H     5.9   -7.6   -1.7
P     4.0    8.9   -0.1
I     1.7    1.4   -9.5
H    -4.0   -7.9   -4.1
H     6.9   -6.4   -2.5
H     4.3   -6.6    5.8
I    -0.9    5.2    8.2
H    -4.7   -7.4    4.5
I     6.5    7.3    1.2
I    -3.3    1.4    9.2
N    -8.3    4.8   -2.5
I     6.7   -3.1    6.6
H    -8.0    4.0   -4.4
N    -5.6   -6.8    4.7
I     4.3   -9.0   -0.1
H    -7.3   -6.4   -2.6
H     5.1   -7.4    4.5
H    -2.7    8.4   -4.9
I     2.0   -6.9   -7.1
I     1.8   -9.1    4.0
H    -9.1    3.0   -3.3
I    -5.4   -3.1   -8.0
N    -8.2   -1.1   -5.8
I    -3.1    1.5   -9.6
H     8.1    5.2    3.7
I    -3.0   -6.8   -7.1
N     6.8   -7.4   -2.2
P    -5.6    3.0   -8.2
H     0.7    9.3   -4.5
H    -3.3   -9.3   -3.2
H    -9.0   -2.5   -4.5
I    -3.1   -9.1    4.0
H    -5.6   -6.6    5.8
H    -4.1    8.6   -4.2
I     9.0   -4.5   -2.8
H    -8.9   -0.3   -5.5
H    -6.7    6.8    4.2
I     4.1    5.2    8.2
I    -5.5   -9.0   -0.1
I    -0.7   -6.6    8.2
H     2.3    9.0   -5.2
P     1.8   -4.7    9.4
H     5.8   -7.9   -4.1
P    -5.8    8.9   -0.1
P     2.0   -4.6   -9.4
I     9.1    1.5   -5.4
H     8.3   -4.6    5.0
H    -6.4   -7.4    4.5
P     1.8  -10.6    1.2
C     9.0    0.6    5.9
N    -3.6    8.9   -5.0
I   -10.6   -0.7    2.3
P    -2.9   -4.6   -9.4
P    -3.1   -4.7    9.3
I    -8.1   -3.2    6.6
I     6.7    5.0   -7.1
C     1.6    9.7   -4.8
I     1.5   10.8   -1.1
H    -9.1    5.4   -2.8
H     7.6   -7.8   -1.7
I     1.5    8.6    6.6
I   -10.6    2.9   -0.1
H     9.2   -5.4    2.8
N    -8.1   -7.0   -2.5
P   -10.6   -2.9   -0.1
H    -8.6   -1.5   -6.7
H     0.1   -0.0  -11.0
H    -8.3   -7.2   -1.5
P    -3.1  -10.6    1.3
I    -8.3    7.3    1.2
I    -0.7   -3.1   10.7
H     2.1   10.2   -3.9
P    -0.9    3.0   10.7
H    -9.8    0.2    5.3
H     5.7    8.6   -4.2
H    -1.5    0.2  -11.0
H     9.2    1.6    6.1
C     6.7   -8.3   -3.5
H     8.1    0.2    7.7
H     8.7   -1.2    7.0
H     8.2   -6.7    3.7
H     9.9    0.2    5.3
H    -4.1    8.7   -5.9
C     9.0    5.8    3.7
H    -8.9   -6.4   -2.8
I    -5.8    5.2    8.2
I     4.2   -6.6    8.2
I     6.5    1.4    9.2
I    -0.9   11.1    2.3
I    -3.4   10.8   -1.1
N     8.9   -0.2    7.1
I    -3.3    8.7    6.6
H     9.0    6.5    2.8
H    10.6    3.0   -3.3
C     9.1   -6.0    3.7
I    11.5   -1.0   -1.1
N     9.1   -5.2    4.9
P    11.5    1.3    1.2
N    -0.7   -0.1  -11.6
H    -2.7   10.6   -4.0
H    -9.8    5.1    3.7
H    -7.1   -8.8   -3.0
I    -0.6  -10.3   -5.4
P     4.0    2.9   10.6
H     9.9    5.1    3.7
I     8.8    7.3   -2.8
I     6.7    1.5   -9.6
I    -0.7    5.3  -10.5
I    -8.0    4.9   -7.1
H     6.6   -9.3   -3.2
H     7.6   -8.1   -4.1
H    10.7   -2.5   -4.5
H    -9.7   -4.6    5.1
P     1.6    7.1    9.4
H    -0.9   -1.1  -11.8
H    -0.5  -10.2    6.1
C    -8.0   -8.2   -3.4
P    -0.5   -8.7   -8.1
I    -5.6   -6.6    8.2
H    -7.8   -7.9   -4.4
I   -10.7   -4.5   -2.8
C    -3.3   10.4   -4.9
H     8.1    7.2    5.0
H     5.8    8.7   -5.9
I   -10.6    1.5   -5.4
I     6.7   -9.1    4.0
I     4.2   -3.2   10.7
I    -0.6    8.8   -8.1
P     1.8    7.2   -9.4
I     6.9   -6.8   -7.1
N     6.3    8.9   -5.0
I     4.0   11.1    2.3
H    10.7   -0.3   -5.5
H     4.3    0.5  -11.3
H     7.2    8.4   -4.9
H    10.0   -4.6    5.1
H   -10.5   -5.4    2.8
C   -10.6    0.6    5.9
N     9.0    6.6    4.9
H     1.0   -1.5   12.1
H     8.9    6.0    5.8
H    10.6    5.4   -2.8
H    11.2    4.6   -1.5
P    -3.3    7.2    9.3
H   -10.5    1.6    6.1
H    -9.6   -6.7    3.7
H     9.1   -5.9    5.8
P    -3.1    7.3   -9.4
N     1.4   10.8   -5.8
I    -0.5   -6.5  -10.5
H     1.0   10.4   -6.7
P     6.7   -4.7    9.3
H     3.2   10.4    6.1
P    -5.8    2.9   10.6
I    11.5   -4.5    1.2
H     9.8   -0.1    7.7
I    11.5    2.7    4.0
H    -2.8   10.7   -5.8
I    -8.3    1.4    9.3
I    -5.6   -3.2   10.7
C    11.5    3.6   -3.4
P     6.9   -4.6   -9.4
I    -8.1    1.4   -9.5
I     4.3    5.3  -10.5
H    -9.9   -0.1    7.7
I     4.3  -10.4   -5.5
H    -5.5    0.5  -11.3
P     8.9    8.9   -0.1
P     9.1    3.1   -8.1
I     4.3    8.7   -8.0
N    11.4    4.8   -2.5
H    10.0   -6.7    3.7
H    -1.5  -11.4    5.3
I     6.4   10.8   -1.1
P     6.8  -10.6    1.3
I    -7.9   -6.9   -7.1
H     4.0   11.0    4.7
H    -4.3   10.9   -4.9
C   -10.5   -6.0    3.7
I     1.9   -3.1  -12.2
C   -10.7    5.8    3.7
C    -0.6  -11.2    5.9
H   -11.5    0.5    5.3
I     1.6    4.9   11.6
I    -0.6  -12.5    2.3
H    -0.4    1.7  -12.6
I    -8.0   -9.1    4.0
H    -1.3   10.6    7.0
C    11.6   -2.1   -4.8
H     0.7   11.5   -5.5
I     9.4   -3.0   -8.1
N   -10.5   -5.2    4.9
I     6.6    8.7    6.6
I    -5.9   11.1    2.3
H     0.2  -11.6    5.3
H   -10.7    6.5    2.8
H    10.7   -6.4   -2.8
H    -7.5    9.0   -5.2
H    12.1   -1.6   -3.9
P     4.4   -8.8   -8.2
I    -2.9   -3.0  -12.1
H     3.3  -10.8    6.1
N    11.4   -1.1   -5.8
I     9.2   -9.0   -0.1
C    -0.6    0.7  -12.9
N   -10.8   -0.2    7.1
H    -8.9   -8.8   -3.3
H     2.2   -0.6   12.7
H    11.0   -1.5   -6.7
H     2.3   11.3   -6.0
H     4.8   10.4    6.1
H   -12.3    4.1   -1.7
H   -10.9   -1.2    7.0
N     4.0   11.0    5.8
