         400
 sphere cut out from bulk 
P    -0.5    0.0    0.1
I     2.1    0.5   -1.8
I     1.4   -0.4    2.7
I    -0.4   -3.1   -0.5
I    -0.6    3.1    0.8
I    -2.5    0.5   -2.4
H     2.8   -2.4    0.0
I    -3.2   -0.4    1.9
H     3.3    2.0   -0.1
H     0.5    3.2   -3.0
H     0.2   -3.3   -3.0
C     3.2   -3.3    0.4
H    -1.2    1.9   -4.1
H    -4.3    1.6    0.6
H    -4.0   -2.4    0.4
H    -1.5   -3.2    3.1
H    -1.1    3.2    3.4
N     4.1    2.4    0.4
H     3.8    2.6    1.4
H     0.5   -2.3    4.2
H     3.2   -3.3    1.5
H     0.8    2.3    4.4
H     2.8   -4.2    0.0
H    -1.8   -2.4   -4.1
H     0.3    1.6   -4.8
H     4.8    1.6    0.6
H     0.6   -2.4   -4.5
N    -0.4    2.3   -4.6
N     0.1   -3.2   -4.1
C     0.2    3.5   -3.9
H    -3.6    3.9    0.4
H    -4.0    3.2   -1.2
C    -1.4   -3.2    4.2
H    -1.8   -2.3    4.7
N    -1.1    3.2    4.4
N    -4.5   -3.2   -0.0
H    -1.5    2.3    4.8
N     0.1   -3.2    4.6
H    -4.4   -3.3   -1.1
N    -5.0    2.4    0.4
C    -4.4    3.5   -0.2
N     4.7   -3.2   -0.0
C    -1.3   -3.3   -4.5
H     5.2   -2.4    0.4
H    -4.0   -4.1    0.4
C     0.4    3.2    4.8
H    -0.6    4.3   -3.8
H     0.5   -4.0    4.2
H     4.7   -3.3   -1.1
P     4.1    0.0   -4.2
H     4.0    4.3   -0.3
C     4.7    3.5   -0.2
H     0.8    4.1    4.4
H     1.0    3.9   -4.5
H     0.6   -4.1   -4.5
H    -1.8   -4.2   -4.1
P     4.1   -0.0    4.5
H    -5.8    2.0   -0.1
H    -5.4    2.6    1.4
H     5.1    3.2   -1.2
H    -0.8    2.6   -5.6
I     6.0   -0.4    1.9
I     1.4   -0.5   -6.1
P    -0.4    6.3    0.1
I     4.2   -3.1   -3.6
P    -0.4   -6.4    0.1
I     4.0    3.1    3.9
H    -1.5    4.0    4.8
H     0.2   -3.2    5.6
H    -1.8   -4.1    4.6
I     2.1    5.9   -1.8
H     5.2   -4.1    0.4
P    -5.1    0.0   -4.2
H    -1.4   -3.2   -5.6
I     1.5   -5.9    2.7
H     0.5    3.2    5.9
H    -5.2    4.3   -0.3
C    -5.9   -3.3    0.4
I    -2.4    0.4    6.3
H     5.6    3.9    0.4
P    -5.1   -0.0    4.5
H    -6.4   -2.4    0.0
I    -2.5    5.9   -2.4
I    -5.0   -3.1   -3.6
I    -3.1   -5.9    2.0
H    -5.9   -3.3    1.5
I     3.9    3.1   -5.0
I     6.7    0.5   -2.4
I    -5.1    3.1    3.9
I     4.1   -3.2    5.0
I     2.1   -6.7   -1.8
I    -7.1    0.5   -1.8
I     1.5    6.7    2.7
I     2.2    0.4    7.1
I    -3.1   -0.5   -6.8
I    -2.5   -6.7   -2.4
H    -6.4   -4.2    0.0
I    -3.1    6.7    2.0
I    -5.0   -3.2    5.0
I    -5.3    3.1   -5.0
I    -7.7   -0.4    2.7
H     3.1   -3.4   -7.1
I     1.6   -5.7   -6.2
P     4.1    6.2   -4.3
I     6.1   -5.9    2.0
P     8.7    0.0    0.1
I    -0.6    3.1   -8.1
P     4.1   -6.4   -4.3
H     7.4   -2.4   -4.1
P     4.1    6.3    4.5
I    -0.3   -3.2    8.2
P     4.1   -6.3    4.5
P    -0.5   -0.1   -8.8
P    -0.5   -0.1    8.8
H     3.4    3.2   -7.6
H     7.7   -3.2    3.1
H     2.8    8.5    0.0
I    -2.4    5.8    6.4
H     7.3   -2.3    4.7
H     4.5   -2.4   -7.4
P    -5.0    6.2   -4.3
H    -4.7   -2.4   -7.4
I     8.5    3.1    0.8
I     6.0   -0.5   -6.8
H    -4.1    3.2    7.5
H     8.0    1.9   -4.1
H     2.9   -2.3    8.4
P    -5.0   -6.4   -4.3
H     4.0   -8.3   -0.3
H    -0.6   -8.3   -3.8
I     6.7    5.9   -2.4
P    -5.1    6.3    4.5
N     3.9   -3.2   -7.7
I     6.7    0.4    6.3
H     8.0    3.2    3.4
P    -5.1   -6.3    4.5
I     6.1    6.7    2.0
H     7.6    2.3    4.8
I     8.7   -3.1   -0.5
I     1.6    6.9   -6.2
I    -7.1    5.9   -1.8
I     2.2    5.8    7.0
H     7.4   -4.2   -4.1
H     3.1    2.3    8.6
C     7.8   -3.2    4.2
H    -4.0    8.5    0.4
H    -3.6   -8.7    0.4
I    -3.1   -5.8   -6.8
I    -0.4    9.5   -0.5
H     4.4   -3.0    7.9
I    -0.6   -9.5    0.8
H    -1.8    8.5   -4.1
H     0.6    8.6    4.2
C     7.8   -3.3   -4.5
H     7.3   -4.1    4.6
H    -3.7    2.3   -8.5
H     5.1    3.2    7.5
I    -2.4   -6.8    6.4
P    -9.6    0.0    0.1
H     0.8   -8.5    4.4
H    -8.3    2.3    4.4
H     0.6    8.5   -4.5
H    -4.7   -3.0    7.9
H    -8.6    3.2   -3.0
H     3.0   -4.1    8.2
H    -4.6   -4.0   -7.5
H     4.6   -4.0   -7.5
C     3.5   -3.2    8.5
N     8.1    3.2    4.4
H    -5.2   -8.3   -0.3
I     6.7   -6.7   -2.4
H     3.0    2.3   -9.0
N     3.5    3.1   -8.6
N    -5.2   -3.2   -7.7
H     0.2    9.4   -3.0
I    -7.7   -0.5   -6.1
H    -8.6   -2.3    4.2
H     7.6    4.0    4.8
H    -1.8    8.5    4.6
H     0.5   -9.4   -3.0
H     1.0   -8.7   -4.5
H    -6.0   -3.4   -7.1
I    -7.1   -6.7   -1.8
C     0.1   -9.1   -3.9
C     3.2    9.4    0.4
H     2.8   -2.3   -9.2
H     3.1    4.0    8.6
I    -0.3   -3.2   -9.4
H    -8.6   -2.4   -4.5
I    -7.0    0.4    7.1
H     5.2    8.5    0.4
H    -1.5   -8.6    4.8
H    -9.0   -3.3   -3.0
H     3.2    9.4    1.5
H    -5.8    3.2   -7.6
I     2.2   -6.8    7.0
H    -1.5    9.4    3.1
I    -0.5    3.1    9.5
H    -3.7    2.3    9.0
I    -7.7   -5.9    2.7
I    -3.0    6.8   -6.8
I    -9.6   -3.1   -0.5
H    -1.2   -9.4    3.4
C    -4.4   -9.1   -0.2
C    -4.2    3.2    8.6
H     7.8   -3.2   -5.6
H    -8.2    3.9   -4.5
N     8.7    2.3   -4.6
N     3.5    3.2    9.0
H    -8.8    1.6   -4.8
H    -3.8    4.1   -8.6
N     0.1    9.4   -4.1
H    -8.3    4.1    4.4
C     4.7   -9.1   -0.2
C     3.5   -3.2   -9.1
H     8.5    4.3   -3.8
H    -4.0   -9.4   -1.2
I    -9.8    3.1    0.8
H     3.0    4.0   -9.0
H     9.3   -3.3   -3.0
H     5.6   -8.7    0.4
H     5.4    2.3   -8.5
H    -8.6   -4.0    4.2
N    -4.5    9.4   -0.0
H    -4.4    9.4   -1.1
C    -4.2    3.2   -9.0
H     8.4    2.6   -5.6
C    -1.4    9.4    4.2
C    -9.0    3.5   -3.9
N    -9.0   -3.2   -4.1
C     5.0    3.2    8.6
C    -1.3    9.4   -4.5
N     4.7    9.4   -0.0
C    -8.8    3.2    4.8
N    -1.1   -9.4    4.4
N     0.1    9.4    4.6
H    -8.6   -4.1   -4.5
H     4.7    9.4   -1.1
I    -7.7    6.7    2.7
H    -3.7    4.1    9.0
H    -6.4    8.5    0.0
H     9.7    3.2   -3.0
C     0.4   -9.5    4.8
H     2.8   10.3    0.0
N     9.3   -3.2   -4.1
H     3.0   -4.1   -9.3
N    -9.1   -3.2    4.6
C    -5.6   -3.2    8.5
C     9.3    3.5   -3.9
H     9.5    1.6   -4.8
H    -6.3   -2.3    8.4
C     4.9    3.2   -9.0
P     8.7    6.3    0.1
I     2.1    0.4  -10.5
H     5.1   -9.4   -1.2
H     3.8  -10.0    1.4
P    -0.5   -6.3   -8.7
P    -0.5    6.3   -8.7
N    -5.7    3.1   -8.6
H    -6.1    2.3    8.6
P     8.7   -6.4    0.1
N     9.2   -3.2    4.6
H     5.4    2.3    9.0
H     9.7   -2.3    4.2
I     6.1   -5.8   -6.8
N    -9.6    2.3   -4.6
P    -0.5   -6.3    8.9
H     5.4    4.1   -8.6
P    -0.5    6.3    8.9
I     6.7    5.8    6.4
I    10.6   -0.4    2.7
H    -8.7    3.2    5.9
H    -4.0   10.2    0.4
H     0.2    9.4    5.6
I     4.2    9.5   -3.6
H     9.7   -2.4   -4.5
H    -1.4    9.4   -5.6
I     4.0   -9.5    3.9
H    -9.0   -3.2    5.6
N     4.1  -10.2    0.4
N    -5.6    3.2    9.0
H    -6.1   -4.1    8.2
H     3.4    3.2   10.0
C    -5.9    9.4    0.4
H     0.5   10.3    4.2
H     4.4   -3.0   -9.7
C     9.5    3.2    4.8
H    -6.1    2.3   -9.0
H    10.0    2.3    4.4
H     0.4   -9.5    5.9
H     3.3  -10.6   -0.1
N     4.0   -3.2    9.9
H     0.6   10.2   -4.5
H    -1.8   10.2   -4.1
C    -5.6   -3.2   -9.1
H    -5.9    9.4    1.5
I    -3.1   -0.5   10.8
H    -6.1    4.0    8.6
H    -4.8   -3.0   -9.7
H     0.8  -10.3    4.4
H   -10.3    1.9   -4.1
N    -0.4  -10.3   -4.6
H   -10.3    3.2    3.4
H     9.7   -4.0    4.2
H     5.4    4.1    9.0
I    -5.0    9.5   -3.6
H    -4.1    3.1  -10.1
H    -9.8    4.3   -3.8
H     9.3   -3.2    5.6
I    -7.6   -5.7   -6.2
I     6.1    6.8   -6.8
H     4.5   -2.4   10.2
I    11.2    0.5   -1.8
I     3.9   -9.5   -5.0
H    -4.6   -2.4   10.2
H    -6.3   -2.3   -9.2
H    -5.4  -10.0    1.4
N    -5.0  -10.2    0.4
I     4.1    9.4    5.0
H     5.2   10.2    0.4
H    -1.8   10.3    4.7
P    -9.6    6.3    0.1
H    -1.5  -10.3    4.8
H     9.7   -4.1   -4.5
I     6.7   -6.8    6.4
I    -5.1   -9.5    3.9
H    -0.8  -10.0   -5.6
H     3.2   -3.3   10.5
I    -7.0    5.8    7.0
P    -9.6   -6.4    0.1
H    -1.2  -10.7   -4.1
H   -10.6   -3.2    3.1
N   -10.2    3.2    4.4
I    -2.5    0.4  -11.3
H    -6.1    4.0   -9.0
N    -5.2   -3.2    9.9
I     1.5   -0.5   11.5
H    10.0    4.1    4.4
H    -9.9    2.6   -5.6
H     5.0    3.1  -10.1
H     9.6    3.2    5.9
H    -4.5   -4.0   10.1
H    10.1    3.9   -4.5
H     4.6   -4.0   10.1
C   -10.5   -3.2    4.2
I    -5.0    9.4    5.0
H    -4.3  -11.0    0.6
C   -10.5   -3.3   -4.5
I   -11.6    0.5   -2.4
H   -10.9   -2.4   -4.1
H    -6.2   -4.1   -9.3
H   -10.7    2.3    4.8
H     7.4    8.5   -4.1
I    -5.3   -9.5   -5.0
I    -7.6    6.9   -6.2
H    -5.7    3.2   10.0
H     0.3  -11.0   -4.8
H     4.8  -11.0    0.6
I    -7.0   -6.8    7.0
H     3.1    9.3   -7.1
H    -6.4   10.3    0.0
H    -5.8  -10.6   -0.1
H    11.9   -2.4    0.0
H     0.4    3.1  -11.7
H   -11.0   -2.3    4.7
H     7.3    8.5    4.6
I     8.6    3.1   -8.1
I    10.6   -0.5   -6.1
I     2.1    5.8  -10.6
H     3.0    8.5    8.2
P     8.6   -0.1   -8.8
H    -4.6    8.6   -7.5
H     4.6    8.6   -7.5
H    -0.7    2.6   12.0
H   -10.5   -3.2   -5.6
P     8.6   -0.1    8.8
H   -10.7    4.0    4.8
H   -10.9   -4.2   -4.1
I     6.1   -0.5   10.8
H     0.2   -3.2  -12.0
I    10.6   -5.9    2.7
I     2.1  -12.1   -1.8
H     7.6   -8.6    4.8
I     8.9   -3.2    8.2
I    -0.6   -9.5   -8.1
I    -0.3    9.4    8.2
I   -12.3   -0.4    1.9
H    -1.3   -3.2   12.0
H     8.5   -8.3   -3.8
I     1.4   12.2    2.7
H     3.1   -8.6    8.6
H     7.7    9.4    3.1
H    -6.0   -3.3   10.5
H     3.4   -9.5   -7.6
I    -2.5  -12.1   -2.4
H   -11.0   -4.1    4.6
P    -0.5  -12.6    0.1
H    11.9   -4.2    0.0
I    -7.0    0.4  -10.5
P    -0.5   12.6    0.1
