         400
 sphere cut out from bulk 
I    -0.0   -2.1   -1.2
H    -0.9   -1.2    2.0
H    -2.2   -0.2    1.4
C    -2.0   -1.1    1.9
H     2.7    1.2   -1.4
H     1.4    2.2   -2.0
I     0.6    3.1    1.2
H    -2.4   -2.0    1.4
P    -1.8   -0.7   -3.2
C     2.5    2.1   -1.9
I     2.8   -1.2    2.3
I    -2.3    2.2   -2.3
N    -2.5   -1.0    3.3
P     2.3    1.7    3.2
H    -2.1   -0.2    3.8
P     2.7   -3.5   -0.0
H     2.9    3.0   -1.4
H     2.6    1.2   -3.8
H    -2.3   -1.9    3.8
H    -3.6   -0.9    3.2
N     3.1    2.0   -3.3
P    -2.1    4.5   -0.0
I    -3.9    2.6    2.0
I     4.4   -1.6   -2.0
I     0.7    0.0   -5.1
I    -0.2    1.0    5.1
I    -4.5   -1.6   -2.0
H    -1.2   -5.0   -1.4
H     4.1    1.9   -3.2
H     2.8    2.9   -3.8
H     2.0   -3.4    4.1
I     0.9   -5.4    2.0
I     5.1    2.6    2.0
H    -4.9    1.9   -3.2
I    -3.6   -4.8    1.2
H    -1.4    4.4   -4.1
H     1.9   -3.2   -5.1
H     5.4   -0.9    3.2
H     3.3   -3.6   -4.1
C    -1.7   -5.9   -1.9
H     1.7    6.0    1.4
H    -6.2    1.2   -1.4
H    -1.3   -5.1   -3.8
I    -2.0   -3.2   -5.4
H     3.3   -2.2   -5.3
I    -6.1   -1.2    2.3
H    -2.7   -5.8   -2.0
I    -0.4    6.4   -2.0
C     3.0   -3.2   -5.1
H     2.2   -1.9    6.0
I     2.5   -5.8   -2.3
H    -1.3    4.2    5.1
H    -2.8    3.2    5.3
H    -2.8    4.5    4.1
C     2.4   -3.8    5.1
I    -1.7   -3.8    5.4
H     0.8   -2.9    6.1
H    -6.0    3.0   -1.4
H     6.7   -0.2    1.4
H    -0.1   -6.1   -3.2
H    -1.7    2.9   -6.0
N    -1.1   -6.0   -3.3
H     6.5   -2.0    1.4
C    -2.4    4.2    5.1
N    -5.9    2.0   -3.3
N     1.8   -2.9    6.2
C    -6.5    2.1   -1.9
H    -1.4   -6.8   -1.4
H     3.4   -3.8    5.1
P    -6.3   -3.5   -0.0
C    -1.8    4.8   -5.1
I    -3.2    0.8   -6.4
I     4.1    5.8   -1.2
P    -1.8   -6.2    3.2
N     6.4   -1.0    3.3
H    -0.3    3.9   -6.1
I     2.5    4.2    5.4
I     5.3   -4.8    1.2
C     7.0   -1.1    1.9
I     6.6    2.2   -2.3
N    -1.3    3.9   -6.2
H     2.0   -4.8    5.3
I    -2.0    6.8    2.3
I     3.8    0.2    6.4
H    -6.3    1.2   -3.8
C     2.2    6.9    1.9
H     1.8    6.1    3.8
I     2.2    4.8   -5.4
H    -2.9    4.8   -5.1
P    -6.6    1.7    3.2
I    -4.8    5.8   -1.2
P    -0.9   -1.1   -7.6
H     3.3    6.8    2.0
H    -6.1    2.9   -3.8
H     0.6    7.1    3.2
H     6.8   -0.2    3.8
H    -5.6   -3.6   -4.1
P     7.1   -0.7   -3.2
N     1.6    7.0    3.3
H     6.6   -1.9    3.8
H    -1.5   -6.8   -3.8
H    -1.5    5.8   -5.3
P     1.4    2.1    7.6
H    -5.6   -2.2   -5.3
H     2.2   -3.2    7.1
H    -7.5    2.2   -2.0
H     1.9    7.8    1.4
N     3.5   -4.1   -6.2
P     6.8    4.5   -0.0
I    -5.2    0.2    6.4
P     2.3    7.2   -3.2
H    -5.5   -3.8    5.1
H     8.1   -1.2    2.0
H    -1.7    4.2   -7.1
H     3.1   -5.1   -6.0
C    -6.0   -3.2   -5.1
N    -3.0    5.1    6.2
H     3.1   -3.8   -7.1
H    -4.4   -4.1   -6.1
I     5.7    0.8   -6.4
H     4.5   -4.1   -6.1
H     6.1    4.5    4.1
H     2.6   -8.2    1.4
H     6.2   -5.8   -2.0
H     6.2    3.2    5.3
H    -7.0   -3.4    4.1
H    -3.5   -0.6    8.1
H     2.0    7.8    3.8
H    -2.6    4.8    7.1
H    -4.0    5.1    6.1
H    -2.6    6.1    6.0
I    -6.5   -5.8   -2.3
H    -5.7    6.8    2.0
I    -8.4    3.1    1.2
C    -6.6   -3.8    5.1
H     4.0    1.6   -8.1
N    -5.5   -4.1   -6.2
H     6.0    4.8   -5.1
I     8.9   -2.1   -1.2
H    -6.8   -1.9    6.0
C     6.5    4.2    5.1
H    -7.1   -3.2   -5.1
H    -2.1   -0.9    9.0
I    -9.0   -2.1   -1.2
H     7.7   -5.0   -1.4
I     1.4   -2.9   -8.8
H     5.0    5.1    6.1
I     7.0   -3.2   -5.4
H     2.7   -8.2    3.8
I    -6.5    4.2    5.4
H    -7.2    6.0    1.4
H    -2.0    9.2   -1.4
H     1.2   -8.9    3.2
C     7.3   -5.9   -1.9
I    -1.3   -9.2    2.3
H     2.6    1.9   -9.0
N    -3.1   -0.9    9.0
H    -5.0    1.6   -8.1
I    -0.9    3.9    8.8
H     7.5    4.4   -4.1
I    -8.2    0.0   -5.1
I    -4.4   -7.0    5.1
C     2.8   -9.1    1.9
P     3.0   -8.7   -3.2
I     0.4   -0.0    9.8
H    -5.8   -5.1   -6.0
I     1.6   -7.2   -6.4
I     4.6   -7.0    5.1
H     5.5   -0.6    8.1
I     7.3   -3.8    5.4
I     0.3   -9.6   -2.0
I     0.1    1.0   -9.8
C    -6.8    6.9    1.9
N     2.2   -9.0    3.3
N    -7.1   -2.9    6.2
I    -6.8    4.8   -5.4
I    -8.1   -5.4    2.0
H     7.3    2.9   -6.0
N     3.6    1.9   -9.0
H    -5.8   -3.8   -7.1
H    -7.0   -4.8    5.3
H     7.6   -5.1   -3.8
H    -3.5   -1.9    9.2
C     7.1    4.8   -5.1
P    -2.7   -5.9    7.6
N     6.0    5.1    6.2
I     7.0    6.8    2.3
P     7.1   -6.2    3.2
I    -0.4   -7.7    6.4
I    -3.4   -8.0   -5.1
H     7.6    4.2    5.1
I     9.5    3.1    1.2
H    -9.9   -1.2    2.0
H    -7.1    6.1    3.8
H    -2.1    9.2   -3.8
I     8.8    1.0    5.1
H     3.9   -9.2    2.0
H     7.5   -6.8   -1.4
H    -6.8   -3.2    7.1
I    -4.1    8.0   -5.1
P    -6.6    7.2   -3.2
H    -0.2   -6.4   -8.1
H     2.4  -10.0    1.4
H     4.0    2.9   -9.2
N     7.9   -6.0   -3.3
I     3.9   -4.1    8.8
H    -0.7    9.9   -3.2
H    -6.4   -8.2    1.4
H    -3.3    1.0    9.9
I    -1.0    8.2    6.4
H    -0.2   -5.1   -9.2
C    -2.3   10.1   -1.9
P    -2.5    9.7    3.2
I    -9.2    1.0    5.1
N     7.6    3.9   -6.2
H    -7.0    7.8    1.4
H     3.8   -0.0   -9.9
I     1.9   10.2   -2.3
H    -8.2   -2.9    6.1
I    -2.6   -2.2  -10.1
N    -7.3    7.0    3.3
H     6.4    4.8    7.1
H     6.4    6.1    6.0
N    -5.3    1.9   -9.0
N    -1.7   10.0   -3.3
I    -3.4    5.1   -8.8
I     4.9    8.0   -5.1
H    -5.1   -9.2    2.0
C    -3.6   -0.0   10.1
P     3.2    6.9   -7.6
H     7.4   -6.8   -3.8
H    10.4    2.2   -2.0
N     5.9   -0.9    9.0
I     0.3   10.6    2.0
H    -3.7    1.1  -10.1
H    -5.0    2.9   -9.2
H     7.5    5.8   -5.3
H     5.5   -1.9    9.2
H     2.5   -9.8    3.8
I     8.6    6.4   -2.0
I    -5.0   -4.1    8.8
P    -7.5    2.1    7.6
I     0.9    8.7   -6.4
N    -0.5   -6.1   -9.0
H    -3.4   10.2   -2.0
H     4.2   -0.1   10.1
I     9.7    0.0   -5.1
I     5.5   -8.0   -5.1
C     4.1    1.0  -10.1
H     7.3    4.2   -7.1
H    -6.3   -8.2    3.8
H     0.7    7.4    8.1
H    -1.6   -6.1   -9.0
I     3.1    3.2   10.1
I    -4.2  -10.1   -1.2
H     0.7    6.1    9.2
P    -6.0   -8.7   -3.2
I     4.0    9.0    5.1
H    -6.9    7.8    3.8
P     8.0   -1.1   -7.6
H    -4.7   -0.1   10.1
C    -6.1   -9.1    1.9
C   -10.9   -1.1    1.9
H    -5.2   -0.0   -9.9
H    -1.8   11.0   -1.4
I    -1.1   -4.8   10.1
H    -6.4    1.9   -9.0
C    -4.8    1.0  -10.1
H     8.9   -6.1   -3.2
I     4.8  -10.1   -1.2
P   -10.8   -0.7   -3.2
H   -11.2   -0.2    1.4
H     8.7    3.9   -6.1
H    -9.0   -6.1   -3.2
H     6.9   -0.9    9.0
I     9.9   -5.4    2.0
H     5.2    1.1  -10.1
H    -8.4    7.1    3.2
C     5.3   -0.0   10.1
H   -10.2   -5.0   -1.4
P     6.2   -5.9    7.6
H     5.7    1.0    9.9
I    -5.0    9.0    5.1
I    -9.3    6.4   -2.0
H    -0.9  -10.2   -5.3
N     1.1    7.1    9.0
I     5.5    5.1   -8.8
H    -3.2   -0.4   11.1
H     1.1   -2.0   11.3
H     6.9    9.2   -1.4
P    -1.5  -11.5   -0.0
H   -11.4   -2.0    1.4
H    -2.0   10.8   -3.8
H     2.1    7.1    9.0
N    -6.7   -9.0    3.3
I   -11.3    2.2   -2.3
H   -11.1   -0.2    3.8
H    -0.5    2.9  -11.3
I     1.6    5.8  -10.1
P    -5.7    6.9   -7.6
H     3.8    1.4  -11.1
H    -9.2    3.9   -6.1
H    -2.0   -9.9    6.0
H     5.6   10.2   -2.0
C    11.5    2.1   -1.9
H    11.7    1.2   -1.4
H     1.3   -8.6    8.1
P    11.3    1.7    3.2
H     9.8   -2.9    6.1
I    -7.6   -2.9   -8.8
I    -4.2   11.1    1.2
P   -11.1    4.5   -0.0
H     0.9   -3.6   11.4
N   -11.5   -1.0    3.3
H    -6.6  -10.0    1.4
H   -10.4    4.4   -4.1
H     6.8    9.2   -3.8
P    -0.0   -1.4  -12.0
H   -11.3   -1.9    3.8
I    11.8   -1.2    2.3
I    -5.9    3.2   10.1
I     6.4   -2.2  -10.1
H   -10.3   -5.1   -3.8
P     6.5    9.7    3.2
P    11.6   -3.5   -0.0
I     4.7   11.1    1.2
N   -10.1   -6.0   -3.3
I     7.6   -9.2    2.3
H    10.9   -3.4    4.1
I    -7.4   -7.2   -6.4
H     1.5   -7.0    9.9
H    -7.7   -8.9    3.2
P     0.6    2.4   12.0
C     6.7   10.1   -1.9
H   -10.3    4.2    5.1
H    11.6    1.2   -3.8
C    -0.0   -7.0  -10.1
H    -0.8  -11.5   -4.1
C   -10.6   -5.9   -1.9
H     1.1   -6.9  -10.1
N     1.3   -2.8   11.9
H    -0.3    4.6  -11.4
H    -5.2    1.4  -11.1
H     9.5    7.1    3.2
H    -2.2  -11.4    4.1
C    -1.2  -11.2   -5.1
H    10.7    6.0    1.4
H    11.9    3.0   -1.4
H    10.8   -3.2   -5.1
H    -6.5   -9.8    3.8
H     1.4   11.2    5.3
P     3.9   -9.1   -7.6
H     5.7   -0.4   11.1
H   -10.4   -6.8   -1.4
I   -10.6   -3.8    5.4
P    -9.9   -1.1   -7.6
H     2.3   -2.9   11.9
N    -0.8    3.8  -11.9
H    -2.3  -11.2   -5.1
I     8.1    3.9    8.8
H    -0.8    9.6   -8.1
H   -10.6    2.9   -6.0
N   -10.3    3.9   -6.2
I   -10.9   -3.2   -5.4
N    12.0    2.0   -3.3
I    -7.1   10.2   -2.3
P     2.0   12.5   -0.0
I    -4.0   -6.9   -9.8
H     4.5   -3.4  -11.4
H    -1.8    3.9  -11.9
H     2.5   10.9   -6.0
H    -4.5   -3.4  -11.4
N    -2.3  -10.9    6.2
H    11.8    2.9   -3.8
H    -0.4   -8.0   -9.9
I     2.8  -11.2   -5.4
N    10.8   -2.9    6.2
N     7.2   10.0   -3.3
H    -1.0    8.0   -9.9
N     1.7   -8.9    9.0
H    -0.7  -11.7    5.1
H    11.2   -1.9    6.0
H    -3.9    4.4   11.4
H    -0.5    7.9   10.1
C   -10.8    4.8   -5.1
P   -10.8   -6.2    3.2
C     0.5    8.0   10.1
P    -5.1   -9.1   -7.6
H    -0.4   -6.6  -11.1
H     0.1   -8.0   10.1
I     1.2  -12.8    1.2
C     1.2   -8.0   10.1
C    -1.8  -11.8    5.1
H    -3.4  -10.9    6.1
I     4.9   -6.9   -9.8
H     2.7   -8.9    9.0
C    11.3   -3.8    5.1
H   -12.5   -0.9    3.2
H     3.0   -4.1  -11.9
I    -8.6   -0.0    9.8
