         400
 sphere cut out from bulk 
I    -1.2    0.0   -0.3
H     0.6    0.1    1.6
N     1.2    0.2    2.4
H     1.6    1.2    2.4
H     1.7   -0.2   -2.6
H     0.6    0.1    3.2
H     2.9   -0.7    1.5
C     2.3   -0.8    2.4
H     1.8   -1.8    2.4
P    -1.2   -3.2   -0.8
P    -1.2    3.2   -0.8
H     0.7    0.8   -3.6
N     1.3   -0.1   -3.5
I     2.0   -3.1   -0.8
I     2.0    3.2   -0.7
H     0.6   -0.9   -3.7
H    -3.5   -0.7    1.5
H     2.9   -0.7    3.3
I    -1.2   -3.6    2.4
I    -1.2    3.7    2.5
C    -4.1   -0.8    2.4
H    -3.5   -0.7    3.3
I    -1.1    2.6   -3.9
I    -1.1   -2.6   -4.0
C     2.3   -0.1   -4.6
I    -1.2    0.0    5.1
I     5.2    0.0   -0.3
H     3.0    0.7   -4.4
H    -4.7   -0.2   -2.6
I    -4.4   -3.1   -0.8
H     2.9   -1.0   -4.6
H    -4.8    1.2    2.4
I    -4.4    3.2   -0.7
H    -4.6   -1.8    2.4
H     2.0    5.1    1.2
H    -3.4    0.7   -4.4
N    -5.2    0.2    2.4
H     1.1   -5.4    1.6
H     1.2    5.1    2.6
H     1.8    0.1   -5.6
H    -3.5   -1.0   -4.6
H    -5.8    0.1    1.6
P     5.2    3.2   -0.8
P     5.2   -3.2   -0.8
C    -4.1   -0.1   -4.6
N     2.0    5.5    2.1
N    -5.1   -0.1   -3.5
H     2.9   -5.4    1.6
H     2.9    5.1    2.6
C     2.0   -5.7    2.1
H     2.0   -5.3   -3.2
P    -1.2   -3.2    5.6
H     2.0   -5.4    3.1
P    -1.2    3.2    5.6
I    -1.2   -6.4   -1.2
I    -1.2    6.4   -1.2
H    -3.5   -5.4    1.6
H    -5.8    0.1    3.2
I     2.0   -3.2    5.6
H    -3.5    5.1    2.6
I     5.2   -3.6    2.4
H     1.0    5.9   -3.1
H    -5.7    0.8   -3.6
I     2.0    3.3    5.6
H    -4.4    5.1    1.2
I     5.2    3.7    2.5
H    -5.8   -0.9   -3.7
I     5.3   -2.6   -4.0
I     5.3    2.6   -3.9
H     7.0    0.1    1.6
H     2.8    5.9   -3.0
H    -4.6    0.1   -5.6
I     5.2    0.0    5.1
N    -4.4    5.5    2.1
H     1.8    0.0    7.2
C     2.0   -6.3   -3.4
H    -3.6    5.9   -3.0
C     2.0    6.4   -3.4
H     1.1   -6.8   -3.1
H     1.1    7.3    1.6
C    -4.4   -5.7    2.1
C     2.0    7.0    2.1
I    -7.6    0.0   -0.3
H    -4.4   -5.3   -3.2
H    -4.4   -5.4    3.1
H     2.0    5.2   -5.2
H     7.0    0.1    3.2
I    -1.1    0.0   -7.7
H    -5.2    5.1    2.6
H    -5.3   -5.4    1.6
I    -4.4   -3.2    5.6
N     2.0   -7.2    2.1
I    -4.4    3.3    5.6
P    -1.2    3.2   -7.1
P    -1.1   -3.2   -7.2
N     7.6    0.2    2.4
H     7.0   -0.9   -3.7
H     2.8   -6.8   -3.0
H     2.0   -7.6    1.2
H     7.1    0.8   -3.6
H     2.9    7.3    1.6
I     2.1    3.3   -7.1
I     2.1   -3.2   -7.2
H     1.2   -7.6    2.6
N     2.0    6.2   -4.9
H     2.0    7.3    3.1
H     1.2   -6.1   -5.4
P     5.2   -3.2    5.6
H    -3.6   -6.8   -3.0
H    -3.5    7.3    1.6
P     5.2    3.2    5.6
I     5.2   -6.4   -1.2
I     5.2    6.4   -1.2
P    -7.6   -3.2   -0.8
P    -7.6    3.2   -0.8
H     2.0    7.5   -3.2
H     8.0    1.2    2.4
N     2.1   -6.5   -4.9
C     2.3   -0.1    8.1
N     7.7   -0.1   -3.5
C    -4.4   -6.3   -3.4
H     8.1   -0.2   -2.6
C    -4.4    6.4   -3.4
C    -4.4    7.0    2.1
H    -4.6    0.0    7.2
H     2.9   -7.6    2.6
H    -4.4    5.2   -5.2
H    -5.4    5.9   -3.1
H     2.9   -6.1   -5.3
H     1.2    6.6   -5.4
H     2.8   -1.0    8.2
H     8.2   -1.8    2.4
N    -4.4   -7.2    2.1
I    -7.6   -3.6    2.4
H    -3.5   -7.6    2.6
I    -7.6    3.7    2.5
H    -3.5   -6.1   -5.3
I    -7.5    2.6   -3.9
H     2.9    0.7    8.3
H    -4.4   -7.6    1.2
I    -1.2   -6.3    6.2
I    -7.5   -2.6   -4.0
I    -4.3    3.3   -7.1
I    -1.2    6.4    6.2
H     2.9    6.6   -5.3
I    -4.3   -3.2   -7.2
I     8.4   -3.1   -0.8
H    -3.6   -1.0    8.2
I     8.4    3.2   -0.7
C     8.7   -0.8    2.4
N    -4.4    6.2   -4.9
H    -3.5    0.7    8.3
H     0.5   -0.9    9.0
I    -7.6    0.0    5.1
H    -4.4    7.3    3.1
C    -4.1   -0.1    8.1
H    -3.5    6.6   -5.3
H    -5.3    7.3    1.6
H    -5.4   -6.8   -3.1
I    -1.1   -6.3   -6.6
H     0.6    0.8    9.1
I    -1.2   -2.6    8.7
I    -1.2    6.4   -6.6
I    -1.2    2.6    8.8
H    -4.4    7.5   -3.2
N    -4.3   -6.5   -4.9
N     1.2   -0.1    9.2
I     5.3    0.0   -7.7
H     2.0    5.2    7.5
P     5.2    3.2   -7.1
H     2.1   -7.5   -5.2
H     7.5   -5.4    1.6
I    -1.2   -9.0    2.5
H     9.3   -0.7    1.5
P     5.3   -3.2   -7.2
H     7.6    5.1    2.6
H     0.7    0.1   -9.5
I    -1.2    9.1    2.4
H     1.2   -6.1    7.3
H    -5.2   -7.6    2.6
P    -1.2   -9.5   -0.8
P    -1.2    9.5   -0.8
H    -5.2   -6.1   -5.4
I     2.0   -9.5   -0.7
I     2.0    9.6   -0.8
C     8.7   -0.1   -4.6
H     9.3   -0.7    3.3
H     8.4    5.1    1.2
H     2.9   -0.7   -9.4
H     1.2    6.6    7.3
H     8.2    0.1   -5.6
P    -7.6   -3.2    5.6
H    -5.2    6.6   -5.4
P    -7.6    3.2    5.6
H     7.4    5.9   -3.1
I    -7.6   -6.4   -1.2
H     2.9   -6.1    7.4
I    -7.6    6.4   -1.2
H    -3.5   -0.7   -9.4
H    -9.9   -0.7    1.5
H    -4.4   -7.5   -5.2
N     2.0    6.2    7.8
H    -4.4    5.2    7.5
H    -3.5   -6.1    7.4
I     5.2   -6.3    6.2
H     1.6   -0.2   10.1
N     8.4    5.5    2.1
I     5.2    6.4    6.2
H     2.8    6.6    7.4
N     2.0   -6.5    7.8
H     9.3   -1.0   -4.6
C     8.4   -5.7    2.1
H     9.4    0.7   -4.4
N     1.3    0.2  -10.3
H     8.4   -5.3   -3.2
H     8.4   -5.4    3.1
I    -4.4   -9.5   -0.7
H    -9.9   -0.7    3.3
I     5.2   -2.6    8.7
H    -3.6    6.6    7.4
I     5.3   -6.3   -6.6
H     7.5   -6.8   -3.1
I     5.2    6.4   -6.6
H     7.5    7.3    1.6
I     5.2    2.6    8.8
N    -5.2   -0.1    9.2
I     8.4   -3.2    5.6
H     1.7    1.2  -10.4
I     8.4    3.3    5.6
C     2.3   -0.8  -10.3
I    -4.4    9.6   -0.8
H     1.8   -1.8  -10.3
I     5.2   -9.0    2.5
I    -7.5    0.0   -7.7
H    -9.8    0.7   -4.4
I     5.2    9.1    2.4
H    -5.9   -0.9    9.0
H     2.0   -7.5    7.5
P    -7.6    3.2   -7.1
H     9.3   -5.4    1.6
C   -10.5   -0.8    2.4
H    -5.8    0.8    9.1
P     5.2   -9.5   -0.8
P     5.2    9.5   -0.8
H     8.2    0.0    7.2
H    -5.2   -6.1    7.3
P    -7.5   -3.2   -7.2
I    -1.1  -10.1   -3.9
N    -4.4    6.2    7.8
H     9.3    5.1    2.6
I    -1.2   10.1   -4.0
I    -1.1    3.7  -10.3
H    -9.9   -1.0   -4.6
I    -1.1   -3.6  -10.3
H     1.9   -5.3    9.5
C     8.4   -6.3   -3.4
H     7.6   -7.6    2.6
C     8.4    6.4   -3.4
N    -4.4   -6.5    7.8
C     8.4    7.0    2.1
H    -5.7    0.1   -9.5
P    -1.2    9.5    5.6
C    -4.1   -0.8  -10.3
P    -1.2   -9.5    5.6
H     7.6   -6.1   -5.4
H    -5.2    6.6    7.3
I     2.0    9.5    5.6
I     2.0   -9.5    5.6
H     0.6    0.1  -11.2
H     8.4    5.2   -5.2
H     2.1   -5.4   -9.6
H    -4.8   -0.2   10.1
I   -10.8   -3.1   -0.8
N     8.4   -7.2    2.1
H     1.8   10.9    2.4
I   -10.8    3.2   -0.7
H     1.0    5.9    9.6
H     9.2    5.9   -3.0
C     1.9   -6.3    9.3
H     1.2    5.1  -10.1
H     6.9   -0.9    9.0
H    -9.9   -5.4    1.6
C     1.9    6.4    9.3
H    -4.6   -1.8  -10.3
H     8.4   -7.6    1.2
H   -11.0   -1.8    2.4
C   -10.5   -0.1   -4.6
H   -11.1   -0.2   -2.6
H     7.6    6.6   -5.4
H    -4.7    1.2  -10.4
H    -9.9    5.1    2.6
I     8.5    3.3   -7.1
H   -11.2    1.2    2.4
H    -4.4   -7.5    7.5
I     8.5   -3.2   -7.2
N    -5.1    0.2  -10.3
H     7.0    0.8    9.1
N     8.4    6.2   -4.9
H     8.4    7.3    3.1
H     2.9   -0.7  -11.2
I    11.7    0.0   -0.3
I    -7.6   -6.3    6.2
H     8.4    7.5   -3.2
I    -7.6    6.4    6.2
H     2.8    5.9    9.7
H     2.9    5.1  -10.1
H    -4.5   -5.3    9.5
N     8.5   -6.5   -4.9
H    -3.5   -0.7  -11.2
H    -4.3   -5.4   -9.6
H     1.0   -6.8    9.6
H     7.1    0.1   -9.5
I    -7.5   -6.3   -6.6
I    -4.4   -9.5    5.6
N   -11.6    0.2    2.4
I    -4.4    9.5    5.6
I    -7.6    6.4   -6.6
H     9.2   -6.8   -3.0
C     8.7   -0.1    8.1
H    -3.5    5.1  -10.1
I    -7.6   -2.6    8.7
I    -7.6    2.6    8.8
H     1.6  -11.5    2.4
H     9.3    7.3    1.6
N     7.6   -0.1    9.2
H    -3.6    5.9    9.7
P    -1.1   -9.5   -7.1
H   -10.0    5.9   -3.0
P    -1.2    9.5   -7.2
H   -10.8    5.1    1.2
I    -7.6   -9.0    2.5
I     2.1   -9.5   -7.1
P    11.6    3.2   -0.8
P    11.6   -3.2   -0.8
I     5.2   10.1   -4.0
I     5.3  -10.1   -3.9
N   -11.5   -0.1   -3.5
I     2.0    9.5   -7.2
H    -4.6   10.9    2.4
C    -4.5   -6.3    9.3
N     2.1    5.5  -10.6
C    -4.5    6.4    9.3
I     5.3    3.7  -10.3
I     5.3   -3.6  -10.3
I    -7.6    9.1    2.4
H     7.6   -6.1    7.3
P     5.2    9.5    5.6
H     2.8   -6.8    9.7
H     1.9    7.4    9.5
P    -7.6   -9.5   -0.8
P     5.2   -9.5    5.6
P    -7.6    9.5   -0.8
C     2.1   -5.7  -10.6
H     2.1    7.3   -9.6
H     9.3   -7.6    2.6
H   -11.0    0.1   -5.6
N   -10.8    5.5    2.1
C     2.2   11.9    2.4
H     9.2   -1.0    8.2
H   -12.2    0.1    1.6
I    11.6   -3.6    2.4
H     9.3   -6.1   -5.3
P    -1.3   -3.2   11.9
H     8.4    5.2    7.5
P    -1.3    3.2   11.9
H     2.8   12.0    1.5
H     0.6   11.8   -3.7
C   -10.8   -5.7    2.1
H     7.6    6.6    7.3
H    -3.6   -6.8    9.7
H    -9.9    7.3    1.6
I    11.6    3.7    2.5
H   -10.0   -6.8   -3.0
H     1.2   -5.4  -11.1
H   -10.8   -5.3   -3.2
H    -5.2    5.1  -10.1
H     8.5   -7.5   -5.2
I     1.9   -3.1   11.9
H   -10.8   -5.4    3.1
H     0.7  -11.9   -3.6
I    -1.2    0.0   12.4
H     9.3    0.7    8.3
H    -5.4    5.9    9.6
H    -5.8    0.1  -11.2
I   -10.8   -3.2    5.6
H     9.3    6.6   -5.3
I    -4.3   -9.5   -7.1
H    -3.6   12.0    1.5
I    11.7   -2.6   -4.0
I   -10.8    3.3    5.6
I    11.7    2.6   -3.9
I     1.9    3.2   12.1
H   -12.2    0.1    3.2
H   -12.1    0.8   -3.6
I    -4.4    9.5   -7.2
I     8.4   -9.5   -0.7
N    -4.3    5.5  -10.6
I    11.6    0.0    5.1
H     0.6  -12.6    1.6
H    -4.8  -11.5    2.4
