         400
 sphere cut out from bulk 
H    -0.1    1.8   -0.3
I     2.4    0.5    0.1
C    -1.0    2.6   -0.3
H    -2.1    1.4    1.0
H    -1.6    2.4   -1.2
N    -1.8    2.4    0.9
I    -2.9   -0.8    1.7
H    -1.3    2.6    1.8
H    -0.6    3.6   -0.4
H     2.6    1.7    2.2
I     1.2   -3.6   -1.2
I    -2.2    0.4   -3.3
P    -0.8   -2.3   -3.2
H    -2.6    3.0    0.9
P     3.8   -2.3    0.0
H     3.3    2.2   -2.1
H     1.8    2.6    3.4
N     2.7    2.2    3.1
H     2.4    0.4    4.3
H     2.4    3.2   -3.2
I     1.7   -0.8   -4.9
C     3.4    2.8   -3.0
I    -3.3   -3.7   -1.9
I    -0.4    3.6    3.9
H     3.1    1.1   -4.2
H     3.4    3.0    3.0
C     3.1    1.3    4.2
P    -2.4   -2.8    4.0
I     0.2   -1.5    5.3
H    -1.1   -5.6   -0.4
P    -5.3   -2.3    0.0
H     4.1    0.9    4.0
H    -1.3    1.4   -5.5
N     3.8    1.9   -4.1
H    -4.4    1.4   -3.9
I     1.8    5.6   -1.2
H     4.1    3.6   -2.9
H     4.7    1.4   -3.9
H     3.2    1.8    5.2
H    -1.0    1.7    6.0
H     0.0    1.0   -6.3
H    -5.0    0.9    4.0
I    -2.8    5.5   -1.9
H    -5.8    2.2   -2.1
I     6.2   -0.8    1.7
I     4.3   -4.4    2.3
N    -0.8    1.6   -6.3
I    -6.7    0.5    0.1
H    -0.5    2.6   -6.2
H     3.9    2.4   -5.0
H    -5.0    3.6   -2.9
I    -4.3    4.8    2.3
C    -1.5   -6.6   -0.3
I    -0.9   -5.6    3.9
I    -4.8   -4.4    2.3
N    -5.3    1.9   -4.1
H    -3.2   -6.2    0.9
C    -5.7    2.8   -3.0
H    -1.8   -6.6    1.8
I    -0.3   -4.4   -5.5
H    -6.5    1.7    2.2
H     1.8   -6.0   -3.2
I     5.7   -3.7   -1.9
H    -5.7    3.0    3.0
H    -2.0    0.4    6.9
H     7.0    1.4    1.0
I     4.8    4.8    2.3
H     6.5    3.0    0.9
C    -1.6    1.5    6.9
N    -2.4   -6.8    0.9
H     3.5   -5.6   -2.9
H    -2.2   -6.8   -1.2
I     0.3    4.8   -5.5
H    -6.0    1.1   -4.2
H    -0.7   -7.4   -0.3
C    -6.0    1.3    4.2
N    -6.4    2.2    3.1
H     2.8   -6.3    3.0
H     1.2   -6.6    3.4
P    -0.2    6.9   -3.2
H    -5.2    2.4   -5.0
I    -4.4   -1.6    6.0
C     2.8   -6.4   -3.0
I     6.9    0.4   -3.3
H    -2.4    2.2    6.9
N     7.3    2.4    0.9
P    -1.8    6.4    4.0
H     2.8   -7.0   -2.1
I     4.7   -1.6    6.0
H    -2.0    0.4   -7.6
C    -1.6    1.5   -7.6
H     7.5    2.4   -1.2
H    -6.7    0.4    4.3
N     2.1   -7.0    3.1
P     2.2   -2.9   -7.2
H    -5.9    1.8    5.2
H    -6.7    3.2   -3.2
P     2.2   -2.9    7.2
H     2.0   -7.5    2.2
P     4.3    6.9    0.0
H     0.0    1.0    8.1
H    -2.4    2.2   -7.5
H    -2.7   -7.8    1.0
N    -0.8    1.6    8.1
P     6.7   -2.8    4.0
P    -4.7    6.9    0.0
H    -5.5   -5.6   -2.9
H     7.8    2.6    1.8
H    -7.3    2.6    3.4
C     8.1    2.6   -0.3
H     5.9   -6.2    0.9
I     6.3    5.5   -1.9
H    -1.0    1.7   -8.4
H    -0.5    2.6    8.2
I    -7.9   -3.6   -1.2
I    -2.3    8.4    1.7
I     1.8   -8.7    0.1
I    -7.4   -0.8   -4.9
I     4.1    3.5   -7.2
N     3.2   -7.3   -4.1
I     4.1    3.5    7.3
H     3.3   -6.8   -5.0
H    -1.0   -6.6   -6.2
H     8.9    1.8   -0.3
H    -1.3    1.4    9.0
P     8.3   -2.3   -3.2
H     8.5    3.6   -0.4
I     0.2   -1.5   -9.2
I    -7.3    5.6   -1.2
H    -6.3   -6.3    3.0
I     0.7    7.7    5.3
C     2.6   -8.0    4.2
H     2.6   -7.4    5.2
I    -5.0    3.5   -7.2
H    -9.2    1.8   -0.3
C    -6.3   -6.4   -3.0
I    -5.0    3.5    7.3
H     2.6   -8.1   -4.2
H     7.7    1.4   -5.5
N     6.7   -6.8    0.9
H     4.2   -7.8   -3.9
I    -4.4   -1.6   -8.4
H    -6.3   -7.0   -2.1
I     1.7   -0.8    9.5
H    -1.9   -7.8   -5.5
H     8.0   -5.6   -0.4
H    -1.6   -7.5    6.0
I     4.7   -1.6   -8.4
I     3.5   -5.7   -7.2
H     6.9   -6.8   -1.2
I    -2.8   -8.8   -3.3
H     6.6    2.2    6.9
H     7.1    0.4    6.9
I     3.5   -5.7    7.3
H     3.5   -8.4    4.0
I    -0.3   -4.4    8.9
H     1.8   -8.8    4.3
P     2.7    6.3   -7.2
H     7.3   -6.6    1.8
P     2.7    6.3    7.2
N    -1.4   -7.6   -6.3
H    -4.9   -7.8   -3.9
H     3.2    1.8   -9.3
H    -7.3   -6.0   -3.2
I     2.2    8.4   -4.9
C     7.6   -6.6   -0.3
H     6.4   -7.8    1.0
I     0.3    4.8    8.9
I     3.0    9.7    0.1
I     8.7    3.6    3.9
H     8.1    1.7    6.0
N    -5.8   -7.3   -4.1
H    -5.7   -6.8   -5.0
H     6.6    2.2   -7.5
C     7.5    1.5    6.9
I    -1.7    9.6   -3.3
H    -9.7    3.6   -0.4
H    -3.0   -7.0    6.9
H     7.1    0.4   -7.6
C   -10.1    2.6   -0.3
H    -0.5   -8.2   -6.3
N    -7.0   -7.0    3.1
P    -6.9   -2.9   -7.2
I    -3.8    7.6    6.0
H     2.4    0.4  -10.1
P    -6.9   -2.9    7.2
I    -8.9   -1.5    5.3
P     7.3    6.4    4.0
H     3.9    2.4    9.4
N     8.3    1.6   -6.3
H    -7.1   -7.5    2.2
C    -2.2   -7.7    6.9
H    -1.0   -6.6    8.2
I     8.2   -5.6    3.9
P    -9.9   -2.3   -3.2
I    -5.5   -5.7   -7.2
H    -3.0   -7.0   -7.5
C     7.5    1.5   -7.6
I    -3.4  -10.0    1.7
H     3.1    1.1   10.2
C     3.1    1.3  -10.2
I     9.3   -1.5    5.3
I    -5.5   -5.7    7.3
H    -5.5   -8.4    4.0
H    -1.6   10.6    1.0
H   -10.3    2.6    1.8
H    -7.9   -6.6    3.4
I    -9.5    3.6    3.9
I     6.8    8.4    1.7
H     8.6    2.6   -6.2
H     2.9    9.6    4.3
I    10.3   -3.6   -1.2
H   -10.7    2.4   -1.2
C    -2.2   -7.7   -7.6
H    -5.2    2.4    9.4
I     5.3    7.6    6.0
H     0.4   11.0   -0.3
P    -2.4   -2.8  -10.4
H    -9.1    1.0   -6.3
H    -6.5   -7.4    5.2
C    -6.5   -8.0    4.2
H     9.1    1.0   -6.3
H     8.4   -7.4   -0.3
H    -5.9    1.8   -9.3
I    -0.4    3.6  -10.6
I     1.1  -10.0   -4.9
N   -10.9    2.4    0.9
N     3.8    1.9   10.4
N    -1.4   -7.6    8.1
H    -6.5   -8.1   -4.2
I     8.8   -4.4   -5.5
H     4.1    0.9  -10.5
I    -7.2   -8.7    0.1
I    -2.2    0.4   11.1
I     6.3   -8.8   -3.3
H   -11.2    1.4    1.0
H    -1.6   -7.5   -8.4
H    -2.6   -8.8    6.9
I    -6.1    9.7    0.1
P    -6.4    6.3   -7.2
I    11.5    0.5    0.1
I    -8.8    4.8   -5.5
P    -0.8   -2.3   11.2
H     1.8    2.6  -11.1
P    -6.4    6.3    7.2
H     3.1   10.9    2.2
H    -4.4    1.4   10.6
H    -0.5   -8.2    8.1
H     6.1   -7.0    6.9
H    -5.0    0.9  -10.5
I     5.7  -10.0    1.7
H    10.8    2.6    3.4
P     8.9    6.9   -3.2
H   -10.2   -5.6   -0.4
H    -1.0   11.6   -1.2
H    -9.6    2.6   -6.2
H    -4.4   10.1    4.0
H     4.7    1.4   10.6
H     3.7   10.3   -4.2
N    -1.2   11.6    0.9
N     8.3    1.6    8.1
I    -9.4   -4.4   -5.5
C    -0.4   11.8   -0.3
N    -5.3    1.9   10.4
H     4.7   10.1    4.0
H     8.1    1.7   -8.4
I   -11.3    0.4   -3.3
N     2.7    2.2  -11.3
N    -9.9    1.6   -6.3
H   -10.4    1.4   -5.5
I    10.7   -0.8   -4.9
C     3.7   10.5    4.2
H    -2.6   -8.8   -7.6
H   -10.1    1.7    6.0
H    -6.0    1.1   10.2
H     2.4    3.2   11.2
C    -6.0    1.3  -10.2
I     9.3    4.8   -5.5
P     3.2  -11.5    0.0
H    -3.8   10.6   -3.9
H    -1.5    9.7    6.9
H     6.1   -7.0   -7.5
H    -0.8   10.6   -5.5
H     7.2   -7.8   -5.5
H     7.7    1.4    9.0
I    -0.4  -10.7    5.3
I    -6.9    8.4   -4.9
I    -0.9   -5.6  -10.6
I    -3.8    7.6   -8.4
I     0.7    7.7   -9.2
H    -0.7   11.8    1.8
H    11.7    1.7    2.2
H     0.6   10.2   -6.3
P    -9.3    6.9   -3.2
H    -1.9   -7.8    9.0
P    -1.3  -11.6   -3.2
I   -11.9   -0.8    1.7
I    -7.4   -0.8    9.5
I   -10.0   -5.6    3.9
H     8.1   -6.6   -6.2
H   -11.7    3.0    0.9
H     3.3   -6.8    9.4
H     2.6   -7.4   -9.3
H    -6.7    0.4  -10.1
H    -7.3   -8.8    4.3
H     8.6    2.6    8.2
H    -9.1    1.0    8.1
H    -6.1    9.6    4.3
N     3.2   11.4    3.1
H     3.9   11.4   -2.1
H     7.5   -7.5    6.0
H     9.1    1.0    8.1
C     3.4    2.8   11.5
H    -9.8   -7.4   -0.3
H    11.5    0.4    4.3
I    10.9    5.6   -1.2
H     3.4    3.0  -11.5
H    11.5    3.2   -3.2
H    -5.4   10.3   -4.2
P    -1.8    6.4  -10.4
H    -1.5    9.7   -7.6
N    11.8    2.2    3.1
H    -0.4   10.9    6.0
C     6.9   -7.7    6.9
H    -2.1   12.2    0.9
P   -11.4   -2.8    4.0
H     2.3   11.8    3.4
H     5.3   10.6   -3.9
C    -5.4   10.5    4.2
I    -8.3    7.7    5.3
C   -10.6   -6.6   -0.3
I     5.3    7.6   -8.4
N    -0.2   10.8   -6.3
N     7.7   -7.6   -6.3
N     4.4   11.1   -4.1
H    -5.9   10.9    2.2
I     7.4    9.6   -3.3
H     2.6    1.7  -12.2
H    10.3   -6.6    3.4
N    -4.7   11.1   -4.1
H    -5.2   11.4   -2.1
H     3.7   11.0    5.2
P     6.7   -2.8  -10.4
C    -1.1   10.7    6.9
H     4.1    3.6   11.5
H    12.4    2.2   -2.1
H    -0.0   12.8   -0.4
C     6.9   -7.7   -7.6
C   -10.7    1.5    6.9
H   -10.9   -6.6    1.8
H     1.8   -6.0   11.2
I     0.7  -12.8   -1.2
I    -8.9   -1.5   -9.2
P    -5.9  -11.5    0.0
H    -9.6    2.6    8.2
H    10.9   -6.0   -3.2
H     6.5   -8.8    6.9
N    -9.9    1.6    8.1
I     2.2    8.4    9.5
H     1.2   -6.6  -11.1
C     3.9   12.0   -3.0
C    12.2    1.3    4.2
H    12.2    1.1   -4.2
H    -5.7   -6.8    9.4
H     3.3    2.2   12.4
H    -1.3    2.6  -12.7
P    -2.9  -12.0    4.0
I     4.2  -10.8    6.0
H     0.6   10.2    8.1
H     7.5   10.6    1.0
P    12.9   -2.3    0.0
I     6.9    0.4   11.1
H   -11.1    0.4    6.9
H    -5.0    3.6   11.5
C    -5.7    2.8   11.5
I   -12.4   -3.7   -1.9
N     3.2   -7.3   10.4
C    12.5    2.8   -3.0
I    -2.9   -0.8  -12.8
H     3.9   12.2    3.0
C    -1.1   10.7   -7.6
I     9.3   -1.5   -9.2
H     2.9   12.4   -3.2
H    12.4    3.0    3.0
H    -5.7    3.0  -11.5
N    -5.8   11.4    3.1
P    -0.2    6.9   11.2
N    -6.4    2.2  -11.3
C   -10.7    1.5   -7.6
C     2.6   -8.0  -10.2
H   -11.2   -6.8   -1.2
I   -11.9    5.5   -1.9
H   -10.1    1.7   -8.4
P   -10.9    6.4    4.0
I     8.8   -4.4    8.9
H     6.5   -8.8   -7.6
H     8.1   -6.6    8.2
H    -5.4   11.0    5.2
I    -4.9  -10.8    6.0
H     2.6   -8.1   10.2
