         400
 sphere cut out from bulk 
P     0.7    0.1    0.0
I    -1.9    0.6    1.9
I    -1.3   -0.4   -2.5
I     0.6   -3.1    0.7
I     0.8    3.2   -0.6
H    -2.6   -2.2    0.1
H    -2.9    2.3    0.3
I     2.7    0.5    2.6
I     3.3   -0.4   -1.8
C    -3.0   -3.1   -0.3
H     0.6   -1.9   -4.0
H    -0.3    3.3    3.0
H     0.0   -3.1    3.2
H     1.7   -2.9   -3.0
H    -3.0   -3.1   -1.4
H     3.9    2.3   -0.1
N    -3.3    3.2   -0.1
H    -3.2    3.2   -1.1
H    -2.5   -4.0    0.1
H    -0.8    2.3   -4.1
H     1.4    2.0    4.2
H     4.2   -2.3   -0.3
H     0.9    3.7   -3.1
H    -2.8    4.0    0.3
C     1.3   -2.6   -4.0
H    -0.1    1.7    4.9
H     0.8    1.9   -4.7
H     2.0   -2.3    4.2
H    -0.3   -2.3    4.7
N     0.1   -3.1    4.3
N     0.6    2.4    4.7
C     0.0    3.6    4.0
C     0.0    2.7   -4.7
N    -4.5   -3.1    0.1
C     4.4    3.2    0.3
H    -4.9   -2.3   -0.3
H     4.4    3.2    1.4
H     2.2   -2.3   -4.6
H    -4.5   -3.1    1.2
N     0.6    3.9   -4.0
N     4.7   -3.1    0.1
H     3.9    4.1   -0.1
H    -5.2    2.3   -0.1
H     4.7   -3.1    1.2
C    -4.8    3.2    0.3
H     4.2   -4.0   -0.3
C     1.6   -3.2    4.6
P    -3.9    0.0   -4.3
P    -3.9    0.1    4.4
H     0.8    4.3    3.9
H    -4.8    3.2    1.4
H     0.0   -4.3   -4.1
H    -0.1    4.6   -3.9
I    -5.9   -0.4   -1.8
H    -0.8    3.9    4.6
N     0.8   -3.9   -4.7
H    -0.4   -4.0    4.7
I    -3.7    3.2   -3.7
H     2.0   -4.1    4.2
I    -4.0   -3.1    3.7
P     0.7   -6.2    0.1
I    -1.2   -0.4    6.2
H     1.0    2.7    5.7
H    -4.9   -4.0   -0.3
H    -0.3    3.0   -5.7
P     0.7    6.4    0.1
H     1.4    4.3   -4.6
I    -2.0    5.9    1.8
I    -1.2   -5.9   -2.6
H    -5.2    4.1   -0.1
N     5.8    3.2   -0.1
H     0.4   -3.6   -5.7
H     6.3    2.3    0.3
H     1.6   -3.2    5.7
I     2.7    0.4   -6.2
H     5.9    3.2   -1.1
H     1.5   -4.6   -4.8
P     5.3    0.0   -4.3
P     5.3    0.1    4.4
I     3.3   -5.8   -1.9
C     6.1   -3.1   -0.3
H     6.6   -2.2    0.1
I    -6.5    0.5    2.6
I     2.7    6.0    2.5
H     6.2   -3.1   -1.4
I    -3.7    3.2    5.1
I     5.2   -3.1    3.7
I    -4.0   -3.2   -5.0
I    -1.9    0.5   -6.9
I    -2.0   -6.7    1.8
I     5.4    3.2   -3.7
I    -1.2    6.8   -2.6
H     6.3    4.0    0.3
I     7.3    0.6    1.9
I     2.7   -6.7    2.5
I     3.3   -0.5    6.9
H     6.6   -4.0    0.1
I     3.3    6.9   -1.9
I     5.1   -3.2   -5.0
I     5.4    3.2    5.1
I     7.9   -0.4   -2.5
I    -5.9   -5.8   -1.9
P    -8.5    0.1    0.0
H    -3.0   -3.1    7.4
I    -1.3   -5.8    6.2
P    -3.9   -6.3   -4.4
H    -7.1   -2.3    4.2
H    -7.5   -2.9   -3.0
P    -3.9    6.3   -4.4
P    -3.9   -6.3    4.4
P    -3.9    6.3    4.4
H    -7.0   -2.3   -4.6
P     0.7   -0.0   -8.7
I     0.6   -3.2   -8.2
I     0.8    3.2    8.2
P     0.7   -0.0    8.8
H    -0.1   -8.0   -3.9
H    -3.3    3.2    7.7
I     2.6    5.9   -6.2
H    -2.5    8.6    0.1
I    -8.4    3.2   -0.6
I    -6.5    0.4   -6.2
H    -7.8    2.0    4.2
H     4.3    3.1   -7.3
I    -5.9   -0.5    6.9
H    -2.9   -8.6    0.3
I    -8.6   -3.1    0.7
I    -6.5    6.0    2.5
C    -7.8   -2.6   -4.0
H    -2.9    2.3   -8.4
H     0.8   -8.3    3.9
I    -5.9    6.9   -1.9
I    -1.9    5.8   -6.9
H    -7.2   -4.1    4.2
H    -2.6   -2.2   -8.6
I    -1.2    6.8    6.2
P     5.3   -6.3   -4.4
P     5.2   -6.3    4.4
H    -4.8    3.1   -7.3
P     5.2    6.3    4.4
H     0.0    8.4   -4.1
P     5.3    6.3   -4.4
H    -4.6   -3.1   -7.6
H     4.6   -3.1   -7.6
H     3.9   -8.5   -0.1
I     0.8   -9.4   -0.6
C    -7.6   -3.2    4.6
I     2.6   -6.7   -6.2
I     7.2    5.9    1.8
H    -2.5   -2.2    8.9
H     1.5    8.0   -4.8
H    -8.2    3.7   -3.1
H     0.9   -9.0   -3.1
C    -3.0   -3.1    8.5
I     0.6    9.5    0.7
H     8.4    2.3   -4.1
H     1.4   -8.3   -4.6
N     0.6   -8.7   -4.0
I     3.3   -5.8    7.0
I    -6.5   -6.7    2.5
H     4.2    8.7   -0.3
H    -8.6   -1.9   -4.0
H    -2.9    4.0   -8.4
H     4.3   -2.2    8.5
H     2.0    8.6    4.2
H    -8.4    1.9   -4.7
H    -2.8    2.4    9.1
H    -0.3    8.6    4.7
H     3.9    2.3    8.7
H    -2.6   -4.0   -8.6
N    -3.3    3.2    8.7
H    -0.3   -9.4    3.0
P     9.9    0.1    0.0
I    -1.9   -6.8   -6.9
H    -0.8   -8.7    4.6
I     0.6   -3.1    9.4
H     3.9    2.3   -8.8
I     0.8    3.1   -9.4
C     0.0   -9.1    4.0
H     8.8    3.3    3.0
N    -3.4    3.2   -8.8
H    -4.9    8.7   -0.3
C     4.4    3.2   -8.4
H    -7.5   -3.2    5.7
N     0.8    8.8   -4.7
C    -3.0    9.5   -0.3
N    -3.3   -9.4   -0.1
H    -5.2   -8.5   -0.1
C    -3.0   -3.1   -9.0
I     7.2    0.5   -6.9
I     7.2   -6.7    1.8
H    -7.8    4.3   -4.6
H     0.0    9.5    3.2
N    -8.6    2.4    4.7
H    -4.9   -2.2    8.5
H    -3.3   -9.5   -1.1
H    -2.6   -4.0    8.9
I     8.0   -0.4    6.2
H    -3.0    9.5   -1.4
H     6.2   -3.1    7.4
H    -7.7   -4.6   -4.8
C    -4.8    3.2   -8.4
H     5.9    3.2    7.7
I     7.9   -5.9   -2.6
H    -9.2   -3.1    3.2
N    -4.5   -3.1   -8.6
H    -8.4    4.3    3.9
H     4.2   -2.3   -9.0
H     9.2   -3.1    3.2
N    -8.6    3.9   -4.0
I     9.7   -3.1    0.7
H     8.8   -2.3    4.7
H     4.2   -3.9    8.5
N     4.7   -3.1   -8.6
H     1.7    9.7   -3.0
H    -8.2    2.7    5.7
I     3.4    6.9    7.0
H     8.4    3.9    4.6
H    -2.8    4.0    9.1
N    -8.4   -3.9   -4.7
N     0.1    9.5    4.3
N    -4.4   -3.1    8.9
H     3.9    4.1    8.7
H    -5.2    2.3    8.7
C     4.4   -9.4    0.3
H     9.1    1.7    4.9
H     3.9    4.1   -8.8
H     4.4   -9.4    1.4
H    -9.5    3.3    3.0
N    -4.4    9.5    0.1
I    10.0    3.2   -0.6
N    -9.1   -3.1    4.3
H    -5.3    2.3   -8.8
P    -8.5   -6.2    0.1
N     4.7   -3.1    8.9
H    -4.9   -2.3   -9.0
H    -4.5    9.5    1.2
C    -4.8   -9.4    0.3
H    -4.9   -3.9    8.5
H    -9.3    1.7    4.9
C    -9.1    3.6    4.0
P    -8.5    6.4    0.1
N     4.7    9.5    0.1
C    -9.1    2.7   -4.7
C     4.4    3.2    9.1
H     4.7    9.5    1.2
C     1.6    9.5    4.6
C     9.2    2.7   -4.7
C     9.2    3.6    4.0
H     0.5    9.0   -5.7
H    -4.8   -9.4    1.4
H     6.3   -8.6    0.3
H    -2.9  -10.3    0.3
H     9.7   -1.9   -4.0
N     9.3   -3.1    4.3
H     4.2   -3.9   -9.0
H    -2.6   10.4    0.1
H     8.8   -4.0    4.7
I    -5.8   -5.8    7.0
P     0.7   -6.3    8.7
I     8.0    6.8   -2.6
I    -1.9    0.5   10.6
P     0.7    6.3    8.7
I   -10.5   -0.4   -2.5
C    -4.8    3.2    9.1
H     6.3    2.3   -8.4
I    -6.6    5.9   -6.2
I    -3.8   -9.4   -3.7
H    -9.5   -2.3    4.7
C     1.4   10.0   -4.0
P     0.7    6.3   -8.8
H    -3.3    3.2   -9.8
H     9.0    4.6   -3.9
H     6.6    8.6    0.1
P     0.7   -6.3   -8.8
H     8.9    3.0   -5.7
H    -9.2   -4.3   -4.1
H     9.2   -4.3   -4.1
C     6.2   -3.1    8.5
I    -3.9    9.5    3.7
N     5.8    3.2    8.7
H    -5.2    4.1    8.7
C     0.0   -9.9   -4.7
H    -3.0   -3.1  -10.1
H    -5.3    4.1   -8.8
H    -8.7   -3.6   -5.7
H    -5.0   -3.9   -9.0
N     5.8    3.2   -8.8
H   -10.0    2.3   -4.1
H     3.9  -10.3   -0.1
H    -0.8  -10.3   -4.1
H    -9.3    4.6   -3.9
H     6.6   -2.2   -8.6
N     5.8   -9.4   -0.1
I     3.3   -0.5  -10.6
N     9.8    2.4    4.7
H     1.7    9.4    5.7
H     4.2   10.3   -0.3
H    10.1    3.7   -3.1
H    10.0    1.9   -4.7
H    -0.3   -9.7   -5.7
H     5.9   -9.5   -1.1
I   -11.1    0.6    1.9
I    -6.6   -6.7   -6.2
H     6.3    4.0   -8.4
N     9.8    3.9   -4.0
N     0.6  -10.2    4.7
H     6.6   -2.2    8.9
H     6.3    2.4    9.1
H    -9.5   -4.0    4.7
H    -0.3   10.3    4.7
H    -4.5   -3.1    9.9
C     6.1    9.5   -0.3
C     6.1   -3.1   -9.0
I    -5.8    6.9    7.0
I    -3.7   -9.4    5.1
H     2.0   10.4    4.2
H     4.6   -3.1    9.9
I    -1.2   -0.4  -11.3
H    -9.5    3.0   -5.7
H     6.2    9.5   -1.4
I    -4.0    9.5   -5.0
H    -4.9   10.3   -0.3
I     5.4   -9.4   -3.7
H     0.6   10.7   -4.0
I     5.2    9.5    3.7
H     1.0  -10.0    5.7
H    10.6    2.0    4.2
H     1.4  -10.7    4.2
H     2.2   10.3   -4.6
H     4.4    3.2   10.2
H     6.6   -4.0   -8.6
H    10.0    4.3    3.9
C    10.5   -2.6   -4.0
H    -5.2  -10.3   -0.1
I     7.3    5.8   -6.9
I     2.7    0.4   11.3
I     7.9   -5.8    6.2
H    10.8   -2.9   -3.0
N     9.9   -3.9   -4.7
P     9.9   -6.2    0.1
H   -10.0    3.9    4.6
H     0.8  -10.7   -4.7
H    -4.8    3.2   10.2
H     9.6   -3.6   -5.7
P     9.9    6.4    0.1
H     6.6   -4.0    8.9
H     6.3    4.0    9.1
I     5.1    9.5   -5.0
H     5.9    3.2   -9.8
H    10.1    2.7    5.7
H    -7.1    8.6    4.2
H   -11.7   -2.2    0.1
H    -0.1  -11.0    4.9
I     5.4   -9.4    5.1
H     6.3  -10.3    0.3
I   -10.4   -0.4    6.2
I     7.2   -6.8   -6.9
I    -8.4    3.2    8.2
H    -7.7    8.0   -4.8
C    10.7   -3.2    4.6
I    11.8    0.5    2.6
I    -5.9   -0.5  -10.6
P    -8.5   -0.0   -8.7
I     7.9    6.8    6.2
H     0.9    2.6  -11.9
H    11.2   -2.3    4.2
P    -8.4   -0.0    8.8
I   -10.4   -5.9   -2.6
H    -0.3    3.0   11.8
H   -12.0    2.3    0.3
H     6.2   -3.1  -10.1
I    -8.6   -3.2   -8.2
I    -1.9    5.9   10.6
H    10.5    4.3   -4.6
H    -7.8   -8.3   -4.6
H     1.6   -3.2  -11.8
I    -1.9  -12.0    1.9
H     6.6   10.4    0.1
H   -11.7   -4.0    0.1
H     0.5   -3.6   11.8
H    -2.9   -8.6   -8.4
H    -2.9    9.5    7.4
H    -8.4   -8.3    3.9
H    -2.6    8.6   -8.6
H    11.4   -2.3   -4.6
I     3.3   -5.8  -10.6
I     0.6    9.4   -8.2
I     0.8   -9.5    8.2
H    -8.2   -9.0   -3.1
P     0.7  -12.6    0.0
I    -1.3   12.3   -2.5
H    -3.3   -9.4    7.7
H    10.7   -4.6   -4.8
C   -12.2   -3.1   -0.3
I    -8.4   -9.4   -0.6
H    11.2   -4.1    4.2
I    12.5   -0.4   -1.8
H    -7.5    9.7   -3.0
H    10.8   -3.2    5.7
