         400
 sphere cut out from bulk 
P    -0.1    0.3   -0.1
I     1.0   -1.8   -1.9
I    -2.3   -1.2    1.5
I     2.3    1.1    1.6
I    -1.3    3.0   -0.7
H     2.2    4.1    0.8
H    -4.6   -0.5    1.1
H    -2.6   -3.6    1.6
H     0.1   -2.6   -4.2
H     5.0    1.3   -0.0
H    -5.1    0.7   -0.9
H    -5.0    1.8    0.6
H    -1.1   -1.6   -5.0
I    -2.8    0.0   -4.6
P     2.6   -4.6   -1.4
H    -1.9   -5.1    1.2
P     2.7    1.4    4.7
I    -0.3    1.5    5.4
N    -5.6   -0.2    1.0
N    -0.3   -2.4   -5.1
C    -5.6    1.0    0.1
C     2.2    5.2    0.8
N    -2.7   -4.7    1.6
I     0.0   -5.7   -0.2
H     5.6   -1.0    0.5
H     1.1   -0.9   -5.6
H     1.3    5.6    1.2
H     5.7    0.1    1.9
H     2.4    5.5   -0.2
H    -0.6   -2.9    5.2
H    -3.8   -4.7   -0.2
I     5.3   -2.9   -1.1
H    -6.1   -1.0    0.5
C     6.1    1.0    0.1
N     6.1   -0.2    1.0
H    -5.9    0.1    1.9
H    -2.8   -5.0    2.6
C     0.7   -1.8   -6.0
H    -0.8   -3.2   -5.6
C    -3.9   -5.1    0.8
P    -2.9    5.7   -1.4
H     6.5    0.7   -0.9
H    -4.8   -1.4   -4.5
N     3.4    5.6    1.6
H     3.3    5.2    2.6
H    -6.6    1.3   -0.0
I     3.0   -1.4    5.9
H     1.5   -2.6   -6.2
H     4.3    5.2    1.2
H    -4.8   -4.7    1.2
H     6.7    1.8    0.6
C    -0.1   -3.2    6.2
P    -3.3    1.3    6.1
H     0.3   -2.3    6.7
H     5.8   -2.2   -3.5
I    -6.4   -2.9   -1.1
I    -5.5    4.6   -0.2
P    -2.5    2.7   -6.2
H     0.3   -1.6   -7.0
H     7.1   -0.5    1.1
H    -5.9   -2.2   -3.5
I    -5.7    1.3    4.2
H     0.7   -3.9    6.1
I     2.6   -5.1   -4.5
H     5.3   -1.4   -4.9
I     3.8   -0.0   -6.3
I     3.0    4.5    5.0
H    -4.0   -6.2    0.8
I     5.9    1.3    4.2
I    -0.2    7.4   -1.1
I    -2.9    5.2   -4.5
I     0.5    2.9   -6.8
N    -5.6   -2.0   -4.5
H     3.5    6.6    1.6
I     6.2    4.6   -0.2
H    -4.7   -3.9   -4.9
N     6.0   -2.0   -4.5
H    -1.9   -3.0    7.3
N    -1.2   -3.7    7.1
H    -6.4   -1.4   -4.9
H     1.5    6.4   -4.9
H    -1.6   -4.6    6.6
C    -5.5   -3.3   -5.3
I    -3.2   -5.8    5.0
H     6.9   -1.4   -4.5
H    -0.3    6.5   -5.3
H     0.1    5.9    5.9
H     6.8   -4.7    1.2
H     5.3   -3.8   -5.3
I     4.2   -7.2   -0.7
H     0.5   -8.5    0.6
I    -3.6   -1.3    7.6
H    -1.1    5.1    6.9
H    -5.2   -2.9   -6.3
I    -2.3   -4.4   -7.2
H     0.2    8.0   -3.5
C     6.2   -3.3   -5.3
P     3.6    2.8   -7.5
C     0.7    7.0   -5.3
C    -0.1    5.6    6.9
H     0.7    5.0    7.4
H    -0.7   -4.0    8.0
H    -1.1   -8.9   -0.0
H     4.4   -2.8    7.3
H    -7.4    5.2    1.2
H    -6.4   -3.8   -5.3
H     7.9   -4.7   -0.2
H     5.6   -4.3    5.9
C    -0.1   -9.2    0.1
C     7.7   -5.1    0.8
H     0.1    9.3    0.5
H     7.0   -3.9   -4.9
I    -3.7    3.8    7.7
N     0.5    8.2   -4.5
H    -6.0   -4.3    5.9
H     6.5   -2.9   -6.3
I    -9.4    1.1    1.6
H     0.4   -9.5   -0.9
I     9.4   -1.2    1.5
H     4.4   -5.2    6.9
H     1.0    7.3   -6.3
I    -4.9    2.7   -8.0
I    -4.5    8.5   -1.9
H     9.0   -3.6    1.6
H     4.5    5.7    6.6
I    -0.2   -9.0    4.2
C     5.4   -4.6    6.9
H     7.7   -6.2    0.8
N     5.2   -3.4    7.7
I     3.9    9.0    1.5
H    -5.6   -2.8    7.7
H     1.6    9.8    1.1
I     8.8    0.0   -4.6
H     1.4    8.8   -4.5
H    -4.8    6.3    6.1
I    -3.8   -9.1    1.6
I     3.8    5.9   -7.2
I    -7.8   -0.0   -6.3
N    -8.3    5.6    1.6
H    -0.2    8.8   -4.9
P    -8.9    1.4    4.7
N     0.6   10.1    1.0
H    -8.3    5.2    2.6
N     8.9   -4.7    1.6
P    -9.0   -4.6   -1.4
H     6.1   -2.8    7.7
I     1.8   -6.5    7.7
P     3.0   -7.6   -6.2
H    -5.4    7.7   -4.2
H    -9.5    4.1    0.8
N    -0.3    6.9    7.7
H    -0.4  -10.2    1.9
I    -7.4   -7.2   -0.7
P     8.4    1.3    6.1
C    -6.3   -4.6    6.9
H    -2.0   -3.6   -9.6
N    -0.0  -10.4    1.0
H     5.3    7.1   -5.6
H     8.8   -5.0    2.6
H    -1.1    7.5    7.3
H     0.2   10.4    1.9
P     8.8    5.7   -1.4
H    -5.5   -5.2    7.4
I    -8.7   -1.4    5.9
H     5.6    7.3    5.2
P    -3.4   -8.9    4.7
H    -8.1    6.6    1.6
H    -4.0    7.7   -6.2
N    -6.5   -3.4    7.7
H    -7.2   -2.8    7.3
H     4.9   -3.6    8.7
H     6.2    7.7   -4.2
H     0.5    7.4    7.7
C    -9.4    5.2    0.8
I     0.2   -3.2   10.3
H    -9.3    5.5   -0.2
I     6.8    2.7   -8.0
I    10.4    3.0   -0.7
H     0.9  -10.7    1.1
I    -1.4    0.2  -10.7
N     5.0    6.5    7.1
H    -6.1    7.3    5.2
I   -10.6   -1.8   -1.9
H     6.2   -5.2    7.4
I    -2.5    8.8    5.9
C    -5.6    7.1    6.2
P    -2.6   -7.5   -7.5
H    -1.8   -2.3  -10.6
H    -0.6    6.6    8.7
H    -6.3    7.1   -5.6
I    -8.7    4.5    5.0
I     0.6   -7.6   -8.0
P     2.2   -9.0    6.1
N     5.8    7.9   -5.1
H     1.0   11.0   -0.9
H     9.8   -5.1    1.2
N    -5.8    7.9   -5.1
H     6.8    6.3    6.1
H     4.2    7.2    7.3
I     8.0   -1.3    7.6
I     8.8    5.2   -4.5
C     6.0    7.1    6.2
H     5.1    8.6   -5.0
H    -0.6  -11.2    0.5
N    -1.9   -3.3  -10.6
H    -7.2   -5.2    6.9
I     7.2    8.5   -1.9
H    -7.1    5.7    6.6
C     0.6   11.3    0.1
I    -9.0   -5.1   -4.5
P     5.4   -9.9   -0.1
I     3.1    2.5  -10.6
P     9.2    2.7   -6.2
P    -8.1    2.8   -7.5
I     8.5   -5.8    5.0
C    -4.8    8.5   -6.0
I     5.2   -8.7    5.4
I    -5.7   -7.3   -6.8
P    11.5    0.3   -0.1
H     5.4    6.3    8.0
I     2.7  -10.2   -4.6
H    -6.7   -3.6    8.7
H    -5.1    1.5  -10.3
H    -5.2    8.0    6.7
H    -0.5   11.6   -0.0
H    -1.0   -3.7  -11.0
I     6.0   -7.3   -6.8
I     7.9    3.8    7.7
N    -6.7    6.5    7.1
H    -3.7    0.9  -11.1
H    -4.4    9.3   -5.6
P    -6.3   -9.9   -0.1
P   -11.8    0.3   -0.1
I     3.3   10.3   -4.6
H    10.6   -1.6   -5.0
H   -10.3    5.6    1.2
I    -2.1    1.7   11.5
H   -10.5   -0.9   -5.6
H    -6.6    8.6   -5.0
H    -6.2    6.3    8.0
I    -3.2   11.4    1.6
I     2.5    8.9    7.6
P    -5.6   10.6   -0.1
I     3.2  -11.5    1.5
I    -7.8    9.0    1.5
I     7.8   -9.1    1.6
I    -1.7   10.2   -6.3
I    -6.5   -8.7    5.4
H    -4.0   -3.3  -11.0
H     1.2   12.1    0.6
H   -10.1   -2.6   -6.2
P     6.0   10.6   -0.1
I    -7.9    5.9   -7.2
P    -3.7    4.3   10.8
H     6.4    8.0    6.7
P    -1.0   -1.1   12.2
N    -4.7    1.2  -11.2
I    -2.3  -10.3   -6.3
H     6.5    1.5  -10.3
I     0.4   11.6    4.2
H    -5.2    8.7   -7.0
H     4.1    6.6   -9.6
C    -3.1   -3.7  -11.4
P     0.7    1.7  -12.3
P     1.8   -6.0   10.8
C     6.9    8.5   -6.0
H     7.6    7.7   -6.2
H     9.8   -3.0    7.3
I     9.3   -4.4   -7.2
H     0.7  -11.7   -4.5
H   -11.6   -2.6   -4.2
C   -10.9   -1.8   -6.0
H    11.1   -2.9    5.2
H    10.9   -3.2   -5.6
I    11.3    1.5    5.4
H    -7.4    7.2    7.3
N    11.3   -2.4   -5.1
I    -1.1    6.0   11.1
H    -0.9  -11.7   -4.9
H     5.7   -0.6   11.3
I     4.4   -4.3   11.1
H    11.7   -2.6   -4.2
H    -4.1    3.2  -11.7
H    -3.1   -4.8  -11.4
H     1.5    4.2   12.0
H    -5.2    0.4  -11.7
H    -6.0   -0.6   11.3
P    -2.8   11.6    4.7
H     6.4    8.7   -7.0
H    10.0   -4.6    6.6
H     4.2   -0.0   12.2
I   -11.6   -5.7   -0.2
I    12.7   -1.8   -1.9
H   -10.2    6.4   -4.9
H    -0.4  -12.5   -3.5
P     8.3   -8.9    4.7
I    11.7   -5.7   -0.2
H     3.0    5.4  -11.4
P    -8.6   -7.6   -6.2
N    -0.1  -12.3   -4.5
H     7.3    9.3   -5.6
H   -11.0   -3.9    6.1
I     0.9   -4.3  -12.4
H     2.1    6.9  -11.0
H    -2.9   -3.3  -12.4
N    10.5   -3.7    7.1
I    -5.1  -12.0   -1.9
N   -12.0   -2.4   -5.1
I   -12.0    1.5    5.4
I    -0.9  -13.2   -1.1
C    -4.7    2.4  -12.1
N     6.9    1.2  -11.2
I   -12.9    3.0   -0.7
H     6.4    0.4  -11.7
P     2.8   11.5    6.1
H   -11.3   -2.3    6.7
N     4.2    7.0  -10.6
H     1.3    2.7   13.0
C     5.3   -0.4   12.3
I   -11.2    2.9   -6.8
H   -11.4   -1.6   -7.0
H    -5.0  -11.2   -5.6
I    -3.1  -11.7    5.9
I    -3.0   -7.7  -10.6
C    11.5   -3.2    6.2
C     3.0    6.5  -11.4
I     5.3    3.2   12.0
H     0.4   -8.8  -10.3
I    -5.3    7.1   10.3
H   -12.2   -2.9    5.2
H    10.6    5.1    6.9
I    11.4    7.4   -1.1
C     1.4    3.8   13.0
H     7.9    0.9  -11.1
H     4.4  -11.9   -5.0
C   -11.7   -3.2    6.2
I    -0.5    4.4  -12.9
H     1.4   -7.1  -11.7
H   -12.7   -1.6   -5.0
H     7.6   -3.3  -11.0
H     5.1    6.6  -11.0
H     4.8   -2.3   12.8
H    10.6   -8.9   -0.0
H    -5.8    2.7  -12.3
I    -8.5    2.5  -10.6
I     6.5  -12.0   -1.9
C    -6.4   -0.4   12.3
H    -7.5    6.6   -9.6
H     5.9    2.7  -12.3
H    12.0   -2.3    6.7
C    12.4   -1.8   -6.0
I     1.5   -0.2   13.8
H    11.9   -1.6   -7.0
I    -7.2   -4.3   11.1
H    -4.3    2.1  -13.1
H     4.3    8.0  -10.6
I    -6.3    3.2   12.0
H    12.8   -0.9   -5.6
H   -11.1   -8.5    0.6
I    -0.8   -7.1   12.0
I     1.9  -11.6    7.6
P     9.1   -7.5   -7.5
H   -12.4   -3.2   -5.6
I   -11.9    7.4   -1.1
I     9.1    8.8    5.9
I    -8.3   10.3   -4.6
H    -5.8    0.4   12.8
I     6.3    7.1   10.3
I   -13.9   -1.2    1.5
C   -11.0    7.0   -5.3
H     5.8    0.4   12.8
P     7.9    4.3   10.8
I    13.9    1.1    1.6
I    -9.8   -6.5    7.7
H     9.7   -3.6   -9.6
H   -10.1    9.8    1.1
H    10.9   -4.0    8.0
H     0.5    4.2   13.5
H    11.4    6.5   -5.3
H     6.6  -11.2   -5.6
H   -11.0    5.0    7.4
H    13.0    5.6    1.2
C     6.9    2.4  -12.1
I     4.9   13.3   -0.7
I     5.8   11.8    5.4
I    12.1    2.9   -6.8
H     7.5    3.2  -11.7
H   -11.5    5.9    5.9
I    -5.9   11.8    5.4
H    -4.6   -6.1   12.0
I     1.9   -0.4  -14.1
H    -7.4   -0.0   12.2
I     8.4   11.4    1.6
H   -10.3    8.8   -4.5
I    -3.1   -2.6   13.7
N     5.3   -1.5   13.2
H    12.3   -3.9    6.1
H     2.9  -13.9    1.6
I    -8.4  -11.5    1.5
I    -8.9  -10.2   -4.6
