         400
 sphere cut out from bulk 
P     0.5    1.0    1.4
I     0.7    0.9   -1.8
I    -1.4   -1.7    1.4
H     1.0   -2.4   -0.9
H    -2.7    1.0   -1.9
I     3.1   -1.0    1.5
H    -0.4   -2.3   -2.9
C     0.9   -3.2   -1.6
H    -3.6    0.6   -0.5
I    -2.1    2.8    1.5
H    -1.2   -3.2   -1.8
H     3.3    1.4   -1.5
N    -0.3   -3.2   -2.4
C    -3.7    0.7   -1.5
H     0.1   -2.8    3.2
H     1.8   -3.2   -2.3
H     1.0   -4.2   -1.0
H    -4.0   -0.3   -2.0
I     2.4    3.6    1.4
H     1.6   -2.4    3.7
I     0.4    0.9    4.6
N     4.3    1.7   -1.9
N     0.9   -3.2    3.7
H    -0.4   -3.9   -3.1
H     1.0    4.8   -1.0
P     0.5    1.0   -5.0
H    -2.2    1.0    4.6
H     1.3   -4.0    3.2
H    -3.1    2.0    3.8
I    -2.0   -0.9   -4.8
N    -4.7    1.7   -1.9
H     5.0   -0.3   -2.0
H     5.3    0.6   -0.5
H    -4.5    2.6   -1.5
H     4.2    1.9   -2.9
H     4.5    2.6   -1.5
P    -4.0   -3.5    1.5
C     5.3    0.7   -1.5
H    -4.1   -0.2    3.8
I    -4.0   -3.6   -1.7
N    -3.1    1.4    4.6
I     2.4   -1.6   -5.1
H    -4.8    1.9   -2.9
H    -0.4    5.1   -3.1
H    -5.7    1.4   -1.5
C     1.0    5.8   -1.6
H     1.3    5.0    3.2
I     2.4   -5.4    1.4
H     3.8    1.0    4.7
H     4.8   -0.2    3.8
H    -1.2    5.8   -1.8
I    -5.9   -1.0    1.5
I    -1.4    3.6   -4.9
H     0.3   -2.7    5.7
C     0.6   -3.6    5.1
N    -0.3    5.8   -2.4
P     5.0   -3.5    1.5
C    -4.2    0.5    4.7
I     5.0   -3.6   -1.7
H     1.8    5.8   -2.3
I     3.1    2.9   -5.0
H    -3.1    2.1    5.4
H     6.2    1.0   -1.9
C     4.8    0.5    4.7
I    -2.1   -6.2    1.5
H    -0.2   -4.3    5.1
H     1.0    6.6   -0.9
I    -4.0    5.4   -1.7
P    -4.0    5.5    1.5
H    -0.2    4.7    5.1
H    -4.1   -0.1    5.6
N     0.9    5.8    3.7
H     0.1    6.2    3.2
H     1.5   -3.9    5.6
H    -5.2    1.0    4.7
I    -4.1   -3.6    4.6
H     5.9    2.0    3.8
P    -4.0   -3.5   -5.0
H    -0.4    6.7   -2.9
H     4.8   -0.1    5.6
I    -1.4   -5.4   -4.9
C     0.6    5.4    5.1
I     5.0    5.4   -1.7
P     5.0    5.5    1.5
I     6.9    2.8    1.5
I    -1.4    7.3    1.4
N     5.9    1.4    4.6
I    -6.6    3.6    1.4
I     4.9   -3.6    4.6
H     1.5    5.0    5.6
H     1.6    6.6    3.7
H    -2.9    0.6   -7.3
P     5.0   -3.5   -5.0
H     1.4   -2.3   -7.4
H    -4.5   -6.4   -1.5
P     0.5    1.0    7.8
I     7.6   -1.7    1.4
H     4.5   -6.4   -1.5
P     0.5   -8.0    1.4
I    -1.4   -1.7    7.8
H    -7.2   -3.2   -2.3
I    -4.1    5.4    4.6
I    -5.9    2.9   -5.0
I     0.7   -8.0   -1.8
I     0.4    1.0   -8.2
H     5.9    2.1    5.4
H     6.8    1.0    4.6
H     3.3   -7.5   -1.5
H    -8.0   -2.4   -0.9
P    -4.0    5.5   -5.0
I     3.1   -6.1   -5.0
I    -6.6   -1.6   -5.1
I     6.9   -0.9   -4.8
H     0.3    6.3    5.7
H    -3.1   -7.0    3.8
H     0.4    4.4   -7.3
H    -4.2    1.9   -7.2
I     3.1   -0.9    7.9
I    -8.3    0.9   -1.8
I    -2.1    2.8    7.8
H    -7.3   -2.4    3.7
H     0.4   -4.5   -7.3
H     7.8   -3.2   -1.8
N     4.3   -7.3   -1.9
P    -8.5    1.0    1.4
I    -6.6   -5.4    1.4
H    -2.7   -8.0   -1.9
C    -3.9    1.0   -7.7
I     4.9    5.4    4.6
I     3.1    8.0    1.5
H     4.2   -7.1   -2.9
C    -8.0   -3.2   -1.6
H     4.8    1.9   -7.2
H     4.3    0.2   -7.7
N     1.4   -3.0   -8.2
N    -4.7   -7.3   -1.9
H    -0.7   -3.4   -8.2
P     5.0    5.5   -5.0
H    -4.6    0.2   -7.7
H    -4.8   -7.1   -2.9
H    -8.0   -4.2   -1.0
C     0.3   -4.0   -8.2
I     2.4    3.5    8.0
H    -3.7   -8.4   -0.5
H     2.3   -3.4   -8.2
H    -7.7   -4.0    3.2
C    -3.7   -8.3   -1.5
I     2.4    7.4   -5.1
C     5.1    1.0   -7.7
I     0.4   -8.1    4.6
I     6.9   -6.2    1.5
H    -3.1   -6.9    5.4
H     8.6   -2.3   -2.9
N    -3.1   -7.5    4.6
H    -8.0    4.8   -1.0
P     0.5   -7.9   -5.0
N    -8.1   -3.2    3.7
H     6.0    0.6   -7.3
P    -4.0   -3.5    7.8
H    -2.2   -8.0    4.6
H     1.4   -2.4   -9.1
N     8.7   -3.2   -2.4
H    -7.2    5.8   -2.3
H    -5.7   -7.5   -1.5
I    -2.0    8.1   -4.8
C     0.3    5.0   -8.2
P     9.5    1.0    1.4
H    -7.7    5.0    3.2
I    -8.5    0.9    4.6
I     7.6    3.6   -4.9
H    -4.0    8.7   -2.0
I    -4.0   -3.5   -8.2
H    -2.8    2.1   -9.2
I    -5.9   -6.1   -5.0
H     5.8   -7.0    3.8
I     9.7    0.9   -1.8
H    -8.9   -2.8    3.2
N    -3.6    1.4   -9.1
H     7.8    5.8   -1.8
P    -8.5    1.0   -5.0
I    -5.9   -0.9    7.9
H     8.6   -3.9   -3.1
H    -0.7    5.6   -8.2
P     5.0   -3.5    7.8
C     5.3   -8.3   -1.5
H     5.3   -8.4   -0.5
H     3.8   -8.0    4.7
C    -8.0    5.8   -1.6
H     9.1   -2.8    3.2
H     1.4    6.6   -7.4
I     2.4   -5.5    8.0
H     0.4    4.4   -9.0
I    -5.9    8.0    1.5
H    -9.4   -2.3   -2.9
P     0.5   10.0    1.4
N    -9.3   -3.2   -2.4
I     0.7    9.9   -1.8
H    -7.5   -3.9    5.6
I    -2.1   -6.2    7.8
H     0.4   -4.6   -9.0
H     2.3    5.5   -8.2
H    -3.2    0.6   -9.7
I     5.0   -3.5   -8.2
H    -3.6    9.5   -0.5
H     5.0    8.7   -2.0
H     9.9   -2.4   -0.9
N     1.4    6.0   -8.2
H    -4.0   -9.3   -2.0
H    -0.3   -2.7   10.0
H     6.2   -8.0   -1.9
P    -4.0    5.5    7.8
H    -8.0    6.6   -0.9
H     8.6    5.1   -3.1
H    -4.1    8.8    3.8
C    -8.4   -3.6    5.1
C    -3.7    9.7   -1.5
H    -7.3    6.6    3.7
H    -2.7   10.0   -1.9
I     7.6   -5.4   -4.9
I     9.4    0.9    4.6
I     3.1  -10.0    1.5
C     9.9   -3.2   -1.6
H     5.9   -6.9    5.4
I   -10.3   -1.7    1.4
H    -7.4    5.0    5.6
H    -5.2   -8.0    4.7
C    -4.2   -8.5    4.7
H     4.1    0.5    9.8
N     5.9   -7.5    4.6
H    -9.4   -3.9   -3.1
N    -8.1    5.8    3.7
I    -4.0    5.5   -8.2
I     7.6    7.3    1.4
H     5.0   -9.3   -2.0
N     5.4    1.4   -9.1
N     8.7    5.8   -2.4
H    -4.4    1.8   -9.6
H    -8.7   -2.7    5.7
H     4.8    8.8    3.8
I     6.9    2.8    7.8
H    -4.2   -9.2    3.8
P     9.5    1.0   -5.0
P     5.0    5.5    7.8
H   -10.1   -3.2   -1.8
H     4.6    1.8   -9.6
C     4.7   -8.5    4.7
I    -1.4    7.3    7.8
I    -1.4  -10.7    1.4
H    10.0   -4.2   -1.0
H    -7.6   -2.3   -7.4
H    -4.2   -7.1   -7.2
I     0.5    9.9    4.6
H     5.3    9.5   -0.5
H    -4.9    0.5    9.8
I    -6.6    3.5    8.0
H     4.1    2.2    9.9
H    -2.7    1.3   10.6
N     9.9   -3.2    3.7
I     7.6   -1.7    7.8
H     4.8   -9.2    3.8
I     5.0    5.5   -8.2
H     3.3   10.4   -1.5
H     8.8   -4.3    5.1
H    -9.4    5.1   -3.1
H    -6.6   -3.4   -8.2
H    10.0    4.8   -1.0
C     5.3    9.7   -1.5
I    -6.6    7.4   -5.1
I     0.5    0.8   11.1
H     4.8   -7.1   -7.2
H     9.2   -2.7    5.7
H    -2.2   10.0    4.6
I    -2.1   -9.9   -4.8
H     8.8    4.7    5.1
C    -8.4    5.4    5.1
P     0.5   10.0   -5.0
N    -9.3    5.8   -2.4
P     0.5   -8.0    7.8
H     6.2    2.1   -9.2
H    -4.1    8.9    5.6
H    -4.9    2.2    9.9
H     5.8    0.6   -9.7
H     8.6    6.7   -2.9
H     1.4    6.6   -9.1
H    -8.9    6.2    3.2
N     4.1    1.3   10.5
H    -9.1   -4.3    5.1
N    -0.3   -2.8   11.0
C    -4.2    9.4    4.7
H    10.2   -4.0    3.2
P     0.6    1.0  -11.4
H     9.1    6.2    3.2
C     9.6   -3.6    5.1
H     1.0  -11.4   -0.9
H    10.8   -3.2   -2.3
I     0.4   -8.0   -8.2
H    -4.1   -9.1    5.6
H    -2.9   -8.4   -7.3
H     6.8   -8.0    4.6
H    -9.1    4.7    5.1
H    10.6   -2.4    3.7
I   -11.1    2.8    1.5
H    -0.0   -1.9   11.4
H     4.9    8.9    5.6
C     4.8    9.4    4.7
N    -7.6   -3.0   -8.2
C     9.9    5.8   -1.6
P    -8.5    1.0    7.8
N    -4.8    1.3   10.5
H     1.7   -3.6   10.9
H     0.5    4.2   10.8
H     3.3    1.2   11.1
H    -0.4  -11.3   -2.9
I    -2.1   -0.9  -11.4
I     6.9    8.1   -4.8
H     3.8   10.0    4.7
N     4.3   10.7   -1.9
I     3.1    8.0    7.9
I    -8.3   -8.0   -1.8
I    -5.9  -10.0    1.5
H     4.8   -9.1    5.6
I     2.4   -1.6  -11.4
P    -8.5   -8.0    1.4
I    -6.6   -5.5    8.0
C    -3.9   -8.0   -7.7
H    -0.3    6.3   10.0
H    -2.8   -6.9   -9.2
H   -10.1    5.8   -1.8
H    -1.2   -3.1   11.3
N    -3.1   10.4    4.6
N    -4.7   10.7   -1.9
H    10.3    5.0    3.2
C    -3.6    1.2   11.3
I    -8.5    1.0   -8.2
H     0.5   -4.8   10.8
H    -9.4    6.7   -2.9
H   -11.7    1.0   -1.9
H    -6.6    5.5   -8.2
H     6.3   10.0   -1.9
H    -5.7   10.4   -1.5
I     2.4  -10.6   -5.1
I    -1.4    3.6  -11.3
C     0.8   -3.9   11.3
H    10.0    6.6   -0.9
H     4.2   10.9   -2.9
I    11.4    3.6    1.4
I   -10.4    3.6   -4.9
H    -3.1   11.0    3.8
I     6.8   -6.2    7.8
I   -11.0   -0.9   -4.8
N     9.9    5.8    3.7
H    -7.6   -2.4   -9.1
H    -8.6    4.4   -7.3
I    -2.1   11.8    1.5
H     1.6  -11.4    3.7
H   -11.2    1.0    4.6
H    -8.6   -4.5   -7.3
H    -8.7    6.3    5.7
H     8.3   -3.4   -8.2
C     9.6    5.4    5.1
I    12.0   -1.0    1.5
H    -5.2   10.0    4.7
I     3.1    2.9  -11.4
H     0.1  -11.8    3.2
H    -4.8   10.9   -2.9
C     5.1   -8.0   -7.7
I    -3.8   -3.6   11.1
H     1.7    5.4   10.9
P     9.4    1.0    7.8
H    -3.5    0.3   11.8
H     6.3    1.3   10.6
C     0.9  -12.2   -1.6
H    -1.2  -12.2   -1.8
N    -0.3  -12.1   -2.4
H    -2.9    9.6   -7.3
N    -3.6   -7.6   -9.1
C     0.8    5.1   11.3
H     4.3   -8.7   -7.7
H    10.8    5.8   -2.3
H    12.3    1.4   -1.5
P     9.5   -8.0    1.4
H     1.8  -12.1   -2.3
H    -7.6    6.6   -7.4
H    -5.7    1.2   11.1
I     9.4    1.0   -8.2
H    -4.5   11.6   -1.5
H    10.5   -3.9    5.6
I    11.4   -1.6   -5.1
C     5.4    1.2   11.3
H    -4.6   -8.7   -7.7
H     4.5   11.6   -1.5
H     9.3    6.3    5.7
C    -8.7   -4.0   -8.2
N    -0.2    6.1   11.0
P    -4.0   -3.4  -11.4
H     6.0   -8.4   -7.3
H    -3.5    2.0   12.0
I    -8.5   -8.1    4.6
H     9.4    4.4   -7.3
H   -12.6    0.6   -0.5
