         400
 sphere cut out from bulk 
P    -1.0    0.5    1.5
I    -1.3    0.6   -1.8
I     1.5   -1.4    1.4
H     3.0   -0.3   -0.3
H     2.2    1.5   -1.6
I     0.9    3.0    1.4
H    -1.8   -2.9   -1.0
H     2.5    0.0   -2.6
C     2.9    0.8   -2.0
N     3.7    0.2   -0.9
I    -2.9   -2.1    1.3
H    -1.3   -2.8   -2.7
H    -1.4    3.8   -0.9
H     4.1    1.0   -0.3
N    -1.7   -3.4   -1.9
H     0.1   -4.3   -1.3
H     3.1    0.2    3.4
I    -3.7    2.4    1.5
H     4.4   -0.4   -1.2
H    -4.5   -0.4   -1.2
H    -0.8    3.8   -2.6
H     3.6    1.4   -2.6
C    -0.9    4.4   -1.7
H    -1.3   -3.0    3.6
I    -1.2    0.6    4.7
H     0.1    4.7   -1.3
H    -4.8    1.0   -0.3
C    -0.9   -4.6   -1.7
H    -2.7   -3.7   -2.2
P    -1.3    0.6   -5.0
I     0.5   -2.2   -4.7
N    -5.2    0.2   -0.9
H     2.2    0.6    4.9
H    -1.4   -5.2   -0.9
C     3.1    0.3    4.5
P     3.4   -4.1    1.4
H    -0.0   -4.3    3.6
I     3.5   -4.1   -1.8
I     1.3    2.4   -5.0
C    -0.9   -3.9    4.1
H    -0.8   -5.2   -2.6
H    -5.9   -0.3   -0.3
I     5.3    2.4    1.5
H    -0.1    4.8    3.6
H     3.4   -0.7    4.9
H    -3.8    1.0    4.5
H    -5.3    1.4   -2.6
P     3.4    5.0    1.4
N    -1.8    5.6   -1.9
I     0.9   -6.0    1.4
H    -1.7    4.4    4.1
H     0.1   -2.8    5.6
I     3.5    5.0   -1.8
H    -2.7    5.3   -2.2
C    -6.0    0.8   -2.0
H     3.9    2.2    4.5
H    -1.7   -4.7    4.1
I     6.0   -2.1    1.3
I    -4.0   -1.3   -5.0
H    -1.9    6.2   -1.0
N     4.1    1.3    4.9
N    -0.6   -3.6    5.5
C    -1.0    5.1    4.1
H    -5.8    0.2    3.4
H    -1.3    6.2   -2.7
H     5.1    1.0    4.5
I    -3.2    3.2   -5.2
H    -6.4    0.0   -2.6
H    -1.4   -3.2    6.0
N    -4.8    1.3    4.9
I    -5.4   -4.1   -1.8
P    -5.5   -4.1    1.4
P     3.2   -3.9   -4.9
H    -6.8    1.5   -1.6
H    -5.0    2.2    4.5
I     5.0   -1.3   -5.0
H    -1.3    6.0    3.6
I     3.5   -4.2    4.7
C    -5.8    0.3    4.5
H    -5.5   -0.7    4.9
H     4.2    1.3    5.9
H     2.7    1.3   -6.8
H    -0.2   -4.4    6.0
I     3.5    4.8    4.7
I    -5.4    5.0   -1.8
P    -5.6    5.0    1.4
H    -0.5   -3.1   -6.9
H     6.3   -3.7   -2.2
H    -0.3    4.6    6.0
I    -3.0    6.9    1.3
I    -7.4   -1.4    1.4
H    -4.7    1.3    5.9
I    -3.6   -6.6    1.5
H     7.1   -2.9   -1.0
P     3.1    5.1   -4.9
N    -0.6    5.5    5.5
H     3.9    0.2   -6.8
I     7.6    0.6   -1.8
I     1.5    7.6    1.4
I     1.6   -1.4    7.6
P    -1.0    0.6    7.9
H     2.2   -7.5   -1.6
P     7.9    0.5    1.5
N     3.5    1.0   -7.3
N     7.2   -3.4   -1.9
I    -5.4   -4.2    4.7
I    -1.3    0.4   -8.2
H     0.1    6.2    5.6
I     0.4    6.9   -4.7
I     5.7    3.2   -5.2
I     1.3   -6.6   -5.0
H    -6.8    0.6    4.9
H    -5.0    0.2   -6.8
I    -3.2   -5.9   -5.2
H     6.2    5.3   -2.2
H     7.5    3.8   -0.9
H    -1.5    5.8    6.0
I     0.8    3.2    7.9
P    -5.8   -3.9   -4.9
H     7.6   -2.8   -2.7
N    -0.6   -3.2   -7.9
H     4.3    1.7   -7.3
I    -2.8   -2.1    7.8
H    -0.8   -2.3   -8.3
I     5.3   -6.6    1.5
I    -5.5    4.8    4.7
P    -1.0   -8.5    1.5
I    -1.3   -8.5   -1.8
I    -8.1    3.0    1.4
H    -4.7    1.7   -7.3
H     3.7   -7.6   -2.6
H    -1.4    3.8   -7.9
C     3.0   -8.2   -2.0
H     7.6   -3.0    3.6
H     0.3   -3.5   -8.3
I     7.7    0.6    4.7
H     4.2   -8.0   -0.3
H    -0.6    5.9   -6.9
H     2.4   -0.1   -8.7
H     4.0   -6.8    4.5
P     7.6    0.6   -5.0
N    -5.4    1.0   -7.3
P    -5.8    5.1   -4.9
I    -3.7    2.3    8.1
I     5.9    6.9    1.3
H     3.0    8.7   -0.3
H    -2.6   -3.9   -7.9
H     7.6   -5.2   -0.9
C     8.0    4.4   -1.7
N     7.2    5.6   -1.9
H    -6.2    1.3   -6.8
H     8.1    3.8   -2.6
C     3.2    0.6   -8.7
H     7.2    4.4    4.1
H    -4.8   -8.0   -0.3
H     7.1    6.2   -1.0
C     8.1   -4.6   -1.7
I    -7.6    2.4   -5.0
P     3.5   -3.9    7.9
C    -1.6   -4.2   -8.3
H     7.2   -4.7    4.1
I     3.0   -3.9   -8.2
H    -5.0   -6.8    4.5
N     3.7   -8.8   -0.9
H    -1.3   -5.2   -7.9
H    -5.2   -7.6   -2.6
H     2.6   -9.0   -2.6
P    -1.1    9.5    1.5
I    -1.2   -8.5    4.7
I     5.8   -5.9   -5.2
H     2.5    9.1   -2.6
C    -1.7    4.8   -8.3
H     4.4    8.7   -1.2
H     2.9    1.5   -9.2
H    -2.6    5.1   -7.9
C     8.0   -3.9    4.1
I     0.8   -5.8    7.9
H     3.1   -9.3   -0.3
N    -0.7    5.8   -7.9
H    -4.5    8.7   -1.2
I    -1.4    9.6   -1.8
P    -1.3   -8.4   -5.0
H    -8.8   -4.3   -1.3
I     5.2    2.3    8.1
H     3.1   -8.8    3.4
I    -8.5   -2.2   -4.7
H    -3.8   -8.0    4.5
H     0.3    5.6   -8.3
P     3.4    5.1    7.9
H     8.1   -5.2   -2.6
N     3.6    9.3   -0.9
H     2.2   -8.5    4.9
I    -4.0    7.7   -5.0
I     2.9    5.1   -8.2
N     4.2   -7.7    4.9
P   -10.0    0.5    1.5
H     9.0   -4.3   -1.3
H     4.1    0.3   -9.2
I    -8.0   -6.0    1.4
H     7.5   -3.2    6.0
H    -8.9    4.7   -1.3
I     6.1   -2.1    7.8
H     7.6    6.2   -2.7
H     3.4    8.3    4.9
H    -6.7   -7.5   -1.6
N    -5.2   -8.8   -0.9
H     9.0    4.7   -1.3
C    -5.9   -8.2   -2.0
C     8.0    5.1    4.1
N    -4.7   -7.7    4.9
H     3.0    9.3    3.4
C     3.2   -8.8    4.5
I     9.8    3.0    1.4
H     7.6    6.0    3.6
P    -5.4   -3.9    7.9
H    -4.8    0.3   -9.2
I   -10.2    0.6   -1.8
I     4.9    7.7   -5.0
H    -4.4   -9.4   -1.2
C    -5.7    0.6   -8.7
H    -1.7   -4.2   -9.4
H     4.5   -9.4   -1.2
C     2.9    9.9   -2.0
H     8.9   -4.3    3.6
H     5.1   -8.0    4.5
H    -5.9    8.7   -0.3
H    -8.9   -4.3    3.6
N     8.3   -3.6    5.5
H     4.3   -7.7    5.9
H     2.8   -7.7   -6.8
H    -0.5   -3.1   10.2
I    10.5   -1.4    1.4
I    -7.3   -1.4    7.6
I     1.6  -10.5    1.4
H     8.9    4.8    3.6
H    -1.7    4.8   -9.4
N    -5.3    9.3   -0.9
H    -0.9    6.8   -8.3
I    -1.3    9.6    4.7
I    -7.4    7.6    1.4
I     9.4   -2.2   -4.7
C     3.1    9.3    4.5
H    -4.7   -7.7    5.9
H    -8.8   -2.8    5.6
H    -9.0    4.8    3.6
H     4.1   10.0   -0.3
H    -9.8    3.8   -2.6
H     2.1    0.8   10.6
I    -2.9    6.9    7.8
H     2.1   10.5   -1.6
I    -6.0   -3.9   -8.2
P    -5.5    5.1    7.9
H     3.5    1.7   10.2
H     6.3   -3.9   -7.9
H    -6.5   -0.1   -8.7
I     1.5    7.7    7.6
P    -1.3    9.6   -5.0
C    -9.9    4.4   -1.7
H   -10.2   -2.8   -2.7
H     2.1    9.6    4.9
C    -9.8   -4.6   -1.7
H     3.9   -0.7   10.2
H     9.1   -2.8    5.6
H    -5.8   -9.3   -0.3
H   -10.3    3.8   -0.9
H    -5.8   -8.8    3.4
I    -0.6    0.4   11.0
I    -3.7   -6.7    8.1
H    -4.9   10.0   -0.3
H    -5.6    8.3    4.9
H    -6.1    1.5   -9.2
H     4.3   -7.3   -7.3
I   -10.2    0.6    4.7
H   -10.8   -2.9   -1.0
P     7.9    0.6    7.9
I     7.7    0.4   -8.2
I    -7.6   -6.6   -5.0
H     7.5    5.8    6.0
H   -10.2   -3.0    3.6
H    -1.6   -4.5   10.2
H    -1.7    4.5   10.2
H    -4.6   -7.3   -7.3
H    11.1    1.5   -1.6
H     8.4   -3.1   -6.9
H    -6.4   -9.0   -2.6
H    -9.7   -5.2   -2.6
H     6.3    5.1   -7.9
I    -6.0    5.1   -8.2
N   -10.7   -3.4   -1.9
N     8.3    5.5    5.5
C    -9.9   -3.9    4.1
H     3.6   10.5   -2.6
N     3.0    1.1   10.9
P   -10.2    0.6   -5.0
H    -5.0   -0.7   10.2
C    -5.8   -8.8    4.5
H     3.5   -9.7    4.9
H    -6.5    9.1   -2.6
H     8.7   -4.4    6.0
C    -1.2   -3.7   10.8
N     3.6   -8.0   -7.3
P    -1.4    0.5  -11.4
H    -5.9    9.3    3.4
H     8.6    4.6    6.0
I     7.7   -8.5   -1.8
N    -9.5   -3.6    5.5
I    -2.9  -11.1    1.3
H   -10.3   -5.2   -0.9
I     0.5   -2.1  -11.4
I     9.8   -6.0    1.4
P    -1.0   -8.5    7.9
H     7.6    3.8   -7.9
I    10.2    2.4   -5.0
H    -5.5    1.7   10.2
H    -3.9   10.1    4.5
P     7.9   -8.5    1.5
H    11.4    0.0   -2.6
I     5.3   -6.7    8.1
C    -6.0    9.9   -2.0
H    -2.0   -3.0   11.2
I    -8.1    3.2    7.9
H    -0.5    5.9   10.2
H     8.1   -2.3   -8.3
C     3.9   -0.1   11.2
H    -9.2   -4.4    6.0
H     3.9   -8.9   -6.8
I     1.2    2.4  -11.5
C    -5.9    9.3    4.5
C     7.3   -4.2   -8.3
H    -6.7   -8.5    4.9
C    -9.9    5.1    4.1
I    -8.5    6.9   -4.7
N     8.3   -3.2   -7.9
H    -9.2    4.6    6.0
H    -6.2   -7.7   -6.8
I    -1.2   -8.7   -8.2
H    12.0   -0.3   -0.3
H    -5.3   10.5   -2.6
H     3.8    9.2   -6.8
C     7.3    4.8   -8.3
H    -1.8  -11.9   -1.0
I     6.0    6.9    7.8
I    -3.7   11.4    1.5
C    11.9    0.8   -2.0
I    -3.9  -10.3   -5.0
C    -1.2    5.3   10.8
H    -9.5   -3.1   -6.9
N     4.1   10.3    4.9
I   -11.9   -2.1    1.3
N    -5.3   -8.0   -7.3
H    11.1    0.6    4.9
H     5.0   10.1    4.5
I     0.5  -11.2   -4.7
H    -8.8    6.2    5.6
H     7.6   -5.2   -7.9
I     0.8   12.1    1.4
I    -3.9   -1.5  -11.4
H    -5.5   -9.7    4.9
H    -4.1    0.2   11.5
H    -1.2  -11.8   -2.7
H    -5.0   -8.9   -6.8
N   -10.7    5.6   -1.9
H   -10.7    4.4    4.1
H     2.9   -7.5   -9.2
I     3.5   -4.0   11.1
C    -5.1   -0.1   11.2
H     2.9    1.6   11.8
I    -3.3    3.1  -11.4
H     9.0    6.2    5.6
H   -10.3    6.2   -2.7
H   -10.6   -4.7    4.1
H     0.3    4.1   11.6
H     8.4    5.9   -6.9
N    -9.6    5.5    5.5
I     7.6    9.6   -1.8
H   -11.6   -3.7   -2.2
N    -4.8   10.3    4.9
I     7.8   -8.5    4.7
H   -10.4   -3.2    6.0
H     3.4   -0.7   11.9
H    -8.6   -3.5   -8.3
P     7.7   -8.4   -5.0
P     7.8    9.5    1.5
H   -10.3    6.0    3.6
N    -5.9    1.1   10.9
P     3.1   -4.0  -11.4
P    -1.1    9.6    7.9
H     4.9    0.2   11.5
I     5.0  -10.3   -5.0
H   -10.8    6.2   -1.0
H    12.0    0.2    3.4
H    -5.1    9.2   -6.8
I    -1.3    9.4   -8.2
I     9.3    6.9   -4.7
C     3.3   -8.4   -8.7
I     1.2   11.4   -5.0
I     5.0   -1.5  -11.4
H     0.3   -4.9   11.6
H    -1.2  -12.0    3.6
I     5.2   11.4    1.5
