         400
 sphere cut out from bulk 
H    -1.3   -0.4    0.7
I     0.2    1.6   -0.9
H    -0.4   -2.0    0.7
C    -1.3   -1.5    1.0
H    -1.4   -1.5    2.1
N    -2.5   -2.2    0.4
H    -2.5   -2.1   -0.6
P     2.8   -0.0   -2.0
I     2.9   -1.7    0.7
H     2.1    1.1    2.5
H    -3.4   -1.7    0.7
H    -1.9    1.6   -3.1
I    -1.6    1.8    3.2
P    -1.6    3.7    0.7
H    -2.5   -3.2    0.8
N     2.7    1.9    2.6
I     1.0   -2.1   -3.5
H     3.3    1.9    1.8
H     2.1    2.8    2.5
I    -3.4   -1.5   -3.0
I    -4.3    2.2   -0.4
N    -2.2    2.3   -3.8
I     0.3   -2.3    4.4
H     2.4    4.3   -1.2
I     4.7    2.2   -0.4
H    -2.0    3.2   -3.5
H    -0.3    2.0   -4.8
H     2.8   -4.3   -1.5
I     1.1    5.0    1.8
H     2.4    4.1   -2.8
C     3.4    1.9    3.9
H    -3.2    2.2   -4.0
C    -1.4    1.9   -5.1
H     1.2    5.1   -2.2
N     2.2    4.8   -2.1
H    -1.6    0.9   -5.4
P     2.9   -3.7    3.3
H     4.1    1.0    3.9
H     2.7    2.0    4.7
I     3.1    2.0   -4.5
H     5.6   -1.7    0.7
I    -1.5    5.4   -2.0
P    -1.5   -3.6   -4.6
P    -1.5   -0.1    5.9
I    -1.5   -5.6   -2.0
H    -5.6    1.9    1.8
H     4.1    2.8    3.9
C     3.0   -5.0   -2.3
H     2.8   -4.6   -3.2
I     1.1   -6.0    1.8
I    -6.0   -1.7    0.7
H    -4.9    1.0    3.9
I     5.5   -1.5   -3.0
H     1.1   -5.9   -2.2
P    -6.1   -0.0   -2.0
I    -3.4   -5.2    2.1
I    -4.1   -1.6    4.8
H     2.7   -1.5   -5.8
H    -1.6    2.7   -5.8
N     6.5   -2.2    0.4
H    -4.9    2.8    3.9
H     6.5   -2.1   -0.6
H    -1.6    4.4    5.1
N     2.1   -6.2   -2.1
H    -1.7   -4.9    4.6
C    -5.5    1.9    3.9
I     4.8   -1.6    4.8
N    -6.2    1.9    2.6
I    -3.4    5.8    2.1
H     4.1   -5.4   -2.2
C     3.1    6.0   -2.3
H     2.3   -6.7   -1.2
I     1.0    1.4    7.0
H     6.4   -3.2    0.8
H     4.1    5.6   -2.2
H     5.7    2.2   -4.0
H    -6.8    1.1    2.5
H     2.8    6.7   -1.5
H    -4.9   -5.4   -2.2
P    -1.6   -7.3    0.7
I    -1.6   -1.7   -7.2
C     3.4   -1.5   -6.6
I    -5.8    2.0   -4.5
H    -6.1   -4.3   -1.5
H     7.6   -0.4    0.7
H    -4.8    5.6   -2.2
H     2.9    6.4   -3.2
H     4.0   -0.6   -6.6
C    -1.4    5.4    5.4
H    -6.8    2.8    2.5
H     7.0    1.6   -3.1
P    -6.0   -3.7    3.3
I     5.5   -5.2    2.1
H     2.8   -1.1    7.2
H     2.3   -6.9   -2.8
C     7.6   -1.5    1.0
H    -1.6    6.1    4.6
H    -0.3    5.5    5.6
C    -1.4   -5.6    5.4
H    -0.4   -5.5    5.6
H    -6.6    4.3   -1.2
H     7.6   -1.5    2.1
I     0.4    5.2   -6.0
H    -6.2    2.0    4.7
H     4.1   -2.4   -6.5
C    -5.9   -5.0   -2.3
N     6.7    2.3   -3.8
H    -6.5    4.1   -2.8
P     7.3    3.7    0.7
H    -4.9   -0.6   -6.6
I     7.3    1.8    3.2
H    -2.5    7.8    0.8
H     2.1   -0.7   -8.0
H    -6.1   -4.6   -3.2
I     5.6    5.8    2.1
I     0.3   -5.8   -6.0
H     6.9    3.2   -3.5
H    -2.0   -4.3    7.0
N     2.7   -1.6   -7.9
H    -1.7   -6.6    5.1
I    -3.4    2.0    7.5
H    -4.9   -2.4   -6.5
P     2.9    7.3    3.3
N    -6.7    4.8   -2.1
H     2.1   -2.4   -7.9
H    -6.2   -1.5   -5.8
P     2.9    3.8   -7.2
C    -5.8    6.0   -2.3
I    -4.1   -5.1   -5.7
I     3.1    5.5    6.0
H     2.3   -3.5    7.6
I     3.0   -5.5    6.0
C    -5.5   -1.5   -6.6
H     1.2   -2.5    8.3
N    -2.2   -5.3    6.6
H    -2.0   -7.8   -3.5
H     8.6   -2.0    0.7
I    -1.5   -2.1    8.5
H     2.0   -8.2    2.5
P    -1.5    7.4   -4.6
C     3.0   -1.6    8.2
I    -7.9   -2.1   -3.5
I    -8.7    1.6   -0.9
I     1.1    1.6   -8.7
H    -3.2   -5.4    6.4
I     4.8   -5.1   -5.7
N    -2.2    5.7    6.6
H    -0.3    9.0    0.7
N     2.2   -2.7    8.4
H    -3.2    5.6    6.4
H     7.3    0.9   -5.4
I    -4.1    5.9   -5.7
H    -6.1    6.7   -1.5
H    -1.9    5.1    7.4
N    -2.4    8.8    0.4
H    -2.4    8.9   -0.6
C     7.5    1.9   -5.1
I     9.1    1.6   -0.9
I    -3.4    2.4   -8.4
H    -6.0    6.4   -3.2
H     4.1   -1.9    8.3
P     7.4   -3.6   -4.6
P     7.4   -0.1    5.9
N    -6.8   -6.2   -2.1
I    -7.8    5.0    1.8
H     3.3   -1.6   -8.7
I     7.5    5.4   -2.0
H     2.8   -0.8    9.0
H    -6.6   -6.7   -1.2
I     7.4   -5.6   -2.0
H    -7.7    5.1   -2.2
I     0.2   -9.4   -0.9
I     4.8    5.9   -5.7
H    -6.1   -1.1    7.2
I     5.5    2.0    7.5
H    -9.3   -2.0    0.7
P     2.8    3.5    8.5
I     1.1    8.9   -3.5
C    -1.2    9.5    1.0
H    -2.0   -5.9    7.4
H     7.3    2.7   -5.8
I     2.9    9.3    0.7
H    -4.8   -1.9    8.3
I     0.4    8.7    4.4
H    -1.3    9.5    2.1
N    -2.2   -8.7   -3.8
N     2.6   -9.1    2.6
I    -4.3   -8.8   -0.4
H    -1.4   -5.0   -8.4
H     3.3   -9.1    1.8
H    -2.0    6.7    7.0
H    -3.3    9.3    0.7
H     7.2   -4.9    4.6
H     4.0   -8.2    3.9
P    -1.6    0.2   -9.8
I    -1.6   -9.2    3.2
H     7.3    4.4    5.1
I    -8.6   -2.3    4.4
I     4.6   -8.8   -0.4
H    -6.6   -6.9   -2.8
I    -5.8    5.5    6.0
P    -6.0    7.3    3.3
I    -7.8   -6.0    1.8
H    -7.8   -5.9   -2.2
I    -5.9   -5.5    6.0
H     8.6    2.0   -4.8
H    -2.0   -9.4   -3.1
H     2.3   -3.2    9.3
H     5.7   -5.4    6.4
P    -6.0    3.8   -7.2
N    -6.3   -1.6   -7.9
H     6.5    7.8    0.8
H    -0.4   -9.0   -4.8
C    -5.9   -1.6    8.2
H    -3.3   -8.8   -4.0
H    -2.4    1.3    9.9
H   -10.2   -0.4    0.7
H    -4.9   -8.2    3.9
H     5.7    5.6    6.4
I     5.5    2.4   -8.4
H    -1.7   -8.3   -5.8
C   -10.2   -1.5    1.0
P     7.3   -7.3    0.7
H    -1.3    6.0   -8.4
C     3.4   -9.1    3.9
I     7.3   -1.7   -7.2
H     2.0   -9.9    2.5
H    -5.6   -1.6   -8.7
C    -1.4   -9.1   -5.1
I    -3.4    9.5   -3.0
I     9.2   -2.3    4.4
I     3.0   -9.0   -4.5
H     2.7   -9.0    4.7
H    -6.8   -0.7   -8.0
P     2.9   -7.2   -7.2
H     7.3    6.1    4.6
H    -1.3   -3.9   -9.8
I    -7.9    1.4    7.0
H   -10.3   -1.5    2.1
H    -9.2    2.0   -4.8
H    -6.6   -3.5    7.6
H    -1.2   10.6    0.7
H     6.9   -4.3    7.0
C    -1.3   -4.9   -9.4
C     7.6    5.4    5.4
I    10.0   -2.1   -3.5
H    -6.9   -2.4   -7.9
I     0.2    5.0    9.5
N     6.7   -5.3    6.6
C     7.5   -5.6    5.4
H    -5.6   -9.1    1.8
H     5.6    9.3    0.7
H    -6.1   -0.8    9.0
H    -2.5    4.4   -9.7
H     6.9   -7.8   -3.5
N     6.5    8.8    0.4
H     2.4    7.5    7.6
H    -6.9   -8.2    2.5
H     6.5    8.9   -0.6
P    -6.1    3.5    8.5
H     7.3   -6.6    5.1
N     6.7    5.7    6.6
I    -6.0    9.3    0.7
N    -6.8   -2.7    8.4
I   -10.5    1.8    3.2
P   -10.5    3.7    0.7
H    -0.4   -5.5   -9.8
I     0.2   -6.0    9.5
H    -0.3    5.5   -9.8
N    -2.5    1.3   10.9
H     5.7   -8.8   -4.0
H    -0.4    1.5   11.2
C    -1.2    6.1   -9.4
I    -4.1    9.4    4.8
C    -5.5   -9.1    3.9
H    11.0    1.1    2.5
H     7.0    5.1    7.4
N    -6.3   -9.1    2.6
I    10.1    5.0    1.8
I     5.5    9.5   -3.0
I     2.9   -5.2   -9.7
H   -10.9    1.6   -3.1
H     4.0  -10.0    3.9
H     2.8    9.5   -5.8
I     7.4   -2.1    8.5
P     7.4    7.4   -4.6
H    -2.5    0.3   11.2
H    10.1    5.1   -2.2
P     2.9   11.0   -2.0
P     2.8  -11.0   -2.0
H    -1.3  -11.4    0.7
H    -3.4   -5.2   -9.7
H     4.1    8.6   -6.5
H    -1.7  -10.1   -5.4
I     0.2   -1.9  -11.4
H   -11.4   -2.1   -0.6
I     4.9    9.4    4.8
N   -11.4   -2.2    0.4
H    11.0    2.8    2.5
N    -2.4    5.4  -10.0
H    -1.3    3.0   11.2
H     8.6   -5.5    5.6
C   -10.3    1.9   -5.1
H    -7.8   -2.5    8.3
I    -5.9   -9.0   -4.5
N     6.7   -8.7   -3.8
H     8.6    5.5    5.6
P     2.8   -7.5    8.5
I     2.9    1.7   11.2
I     2.9    5.8   -9.7
I    -8.6    5.2   -6.0
C    -1.3    2.0   11.5
I    -4.3   -1.3  -10.9
H     6.9   -5.9    7.4
H    -4.9  -10.0    3.9
N    -2.5   -5.6  -10.0
I    -7.8    1.6   -8.7
I    10.0   -6.0    1.8
H    -3.3    5.8   -9.7
H    -4.8    8.6   -6.5
H    -3.3    1.7   11.2
P    -6.1   -7.2   -7.2
H    -6.6   -3.2    9.3
I    -1.5    9.3   -7.2
H     6.5    1.3    9.9
I     4.6   -1.3  -10.9
H   -10.5    0.9   -5.4
H     6.9    6.7    7.0
H     2.1    8.6   -7.9
H   -11.4   -3.2    0.8
H    10.1   -5.9   -2.2
P    11.7   -0.0   -2.0
I   -10.4    5.4   -2.0
I     1.0   -9.6    7.0
H     2.3    0.9  -11.6
H   -10.9    3.2   -3.5
P    -1.6   -3.9   11.2
I    11.8   -1.7    0.7
H    -6.3   -9.0    4.7
N     2.2    8.3    8.4
N   -11.1    2.3   -3.8
H     1.2    8.5    8.3
P   -10.5   -3.6   -4.6
P   -10.5   -0.1    5.9
I    -8.6   -5.8   -6.0
I   -10.4   -5.6   -2.0
H    -2.5   -6.6   -9.7
N    11.6    1.9    2.6
C     3.5    9.5   -6.6
H     6.9   -9.4   -3.1
H    11.3    4.3   -1.2
H    -1.2    7.1   -9.8
H    -9.2    5.5    5.6
H    -9.3   -5.5    5.6
I    -4.3   -5.3   10.1
P     7.3    0.2   -9.8
I     7.3   -9.2    3.2
I    10.0    1.4    7.0
I    -3.5   -9.0    7.5
I     9.3    5.2   -6.0
N    11.1    4.8   -2.1
C     7.7    9.5    1.0
I     4.6   -5.3   10.1
H     7.6   -5.0   -8.4
I    -4.3    5.7   10.1
H     7.6    9.5    2.1
H    11.3    4.1   -2.8
H    -6.9   -9.9    2.5
H     2.4    7.8    9.3
H     5.6   -5.2   -9.7
H   -10.6    2.7   -5.8
I    -1.5    8.9    8.5
I    -7.8    8.9   -3.5
H   -12.3   -1.7    0.7
I     9.2   -5.8   -6.0
H     6.5    4.4   -9.7
I     4.7    5.7   10.1
P    -1.5   10.9    5.9
H     8.6    9.0    0.7
H     7.2   -8.3   -5.8
H   -10.5    4.4    5.1
I    -3.4   -8.6   -8.4
H     2.1   12.1    2.5
I     1.1   -2.5   12.2
H    12.3    1.9    1.8
H    -2.4    5.4  -11.1
H   -10.6   -4.9    4.6
H    -6.5    7.5    7.6
H     2.9    9.9    7.2
H    11.7   -4.3   -1.5
N     2.7    9.4   -7.9
C    -1.3  -12.5    1.0
I    -6.1   -5.2   -9.7
I     0.3   12.6   -0.9
H     5.6    1.7   11.2
P    -1.6  -11.1    5.9
H     5.6    5.8   -9.7
H    -2.5   -5.6  -11.1
H     2.8    3.2  -11.9
H    -6.2    9.5   -5.8
