         400
 sphere cut out from bulk 
I     1.1    0.2   -1.3
P    -1.4    2.1   -0.2
I    -1.4   -0.1    2.1
P     1.1   -2.1    1.0
I    -1.4   -3.7   -0.2
I     1.2    3.6    1.2
I    -3.9    0.1   -1.3
P     3.6    2.1   -0.3
I     3.6   -0.1    2.2
H     0.2    0.8   -4.3
P    -3.9   -2.1    1.1
H    -1.5    0.0    4.6
I    -1.4    3.6   -3.0
I     3.6   -3.6   -0.3
H     1.1   -4.8   -1.7
I     1.1   -3.5    3.8
H    -3.8    0.2   -3.7
H     0.3   -3.7   -3.8
H     2.4    1.7   -4.5
C     0.5    1.2   -5.2
I    -3.9    3.6    1.1
H     2.3    0.2   -5.1
H     2.8    3.7    3.2
H     2.0   -3.7   -3.8
N     2.0    1.1   -5.3
H    -2.9   -0.6   -5.0
H     0.2    2.2   -5.4
N    -1.6    0.2    5.6
I     3.6    3.5   -3.1
H     3.5   -0.9    4.6
N     1.1   -4.3   -3.8
H    -0.8    0.8    5.8
H    -0.6    4.4    4.0
I    -1.3   -2.3   -5.4
H    -1.5    5.2    2.6
C     1.1   -5.3   -2.7
H    -2.9   -4.4   -3.0
N    -3.8    0.0   -4.8
H     0.1    0.6   -6.1
I     6.0    0.1   -1.3
H    -2.8    1.9   -5.2
H     2.7   -2.1    5.3
H    -2.4    0.8    5.8
C    -1.5    5.0    3.7
H    -2.4    4.4    4.0
H    -0.6   -1.6    6.1
P     6.1   -2.1    1.1
I    -3.9   -3.5    3.9
H     0.2   -5.9   -2.8
N     3.2    4.0    4.1
N     3.5   -1.5    5.4
C    -1.6   -1.1    6.4
P    -6.3    2.1   -0.3
H     2.6    3.7    4.9
H     0.1    6.1   -2.8
I    -6.3   -0.1    2.2
H    -3.8   -5.2   -1.8
H    -0.6   -5.2    4.3
H     2.3    1.5   -6.2
C    -3.7    1.3   -5.5
H    -2.4   -1.7    6.1
H    -4.6   -0.6   -5.0
I     0.9    2.5    6.3
I     3.5   -2.1   -5.5
H     2.0   -6.0   -2.7
C    -3.8   -4.9   -2.8
H     4.1    3.5    4.2
H     1.2   -4.8   -4.7
H     1.9    6.1   -2.7
H    -3.1    5.3   -3.4
H     2.5   -0.0    6.6
H    -2.2   -5.2    4.3
H    -4.7   -4.4   -3.1
I     6.0    3.6    1.1
H     6.1    0.2   -3.7
H     4.3   -2.1    5.4
H    -4.6    1.9   -5.3
C     1.0    6.7   -2.7
I    -6.3   -3.6   -0.3
H     5.3   -0.6   -5.0
H     5.2   -4.4   -3.1
H    -1.4   -6.8    2.6
N    -1.4   -5.8    4.5
C     3.4   -0.7    6.7
H     1.0    7.3   -1.7
H    -3.7    1.1   -6.6
H    -1.6   -0.8    7.5
H     2.6    6.0    4.0
C     3.5    5.5    4.1
H     5.3    1.9   -5.3
H     2.7   -6.0    4.0
N     6.1    0.0   -4.8
H     4.2    5.7    3.2
N    -1.5    6.2    4.5
I    -4.1    2.5    6.2
I    -6.4    3.5   -3.1
H    -4.7    5.3   -3.5
H    -6.4   -0.9    4.6
I     6.0   -3.5    3.9
N    -3.9    5.9   -3.7
H    -5.8    3.5    4.2
H     4.3   -0.0    6.7
H    -5.6   -2.1    5.4
H    -3.9    6.8   -1.8
H    -0.7    6.8    4.3
C    -1.4   -7.1    3.7
N    -3.8   -6.2   -3.7
H     5.2    5.3   -3.5
H    -3.0   -6.8   -3.4
H     6.1   -5.2   -1.8
H    -1.4   -6.0    5.5
H     4.2   -6.3    3.2
C     6.1   -4.9   -2.8
H    -1.5    6.1    5.5
H     3.4   -1.3    7.5
H    -2.3    6.8    4.3
C     6.2    1.3   -5.5
H    -3.8   -6.0   -4.7
I    -1.5    8.4   -0.2
C     3.6   -6.6    4.1
N    -6.4   -1.5    5.4
I     1.2   -8.4    1.2
H     7.0   -0.6   -5.0
C    -3.9    7.1   -2.8
H    -3.9    6.1   -4.7
H     4.0    5.7    5.0
H    -0.5   -7.7    4.0
N     1.1    7.7   -3.8
H     1.1    7.2   -4.7
H    -7.1    3.7    3.2
I    -6.4   -2.1   -5.5
H    -5.8    5.7    3.2
H    -5.6   -0.0    6.7
I    -1.5    2.6   -8.2
H     7.0   -4.4   -3.0
I     8.5   -0.1    2.1
N    -6.7    4.0    4.1
H    -3.0    7.7   -3.0
P     8.6    2.1   -0.2
I     5.8    2.5    6.2
H    -2.3   -7.6    4.0
I    -8.8    0.2   -1.3
H    -4.6   -6.8   -3.5
H    -7.5    1.7   -4.5
H     7.1    1.9   -5.2
H     4.1   -6.3    5.0
I    -1.3   -8.5   -3.0
P    -1.4   -3.7   -8.2
H    -5.7   -6.3    3.2
H     6.2    1.1   -6.6
I     3.5    8.4   -0.3
I     1.1   -5.6   -7.1
P    -8.8   -2.1    1.0
N     6.0    5.9   -3.7
H     0.2    8.3   -3.8
H    -7.6    0.2   -5.1
H    -7.2   -2.1    5.3
H     6.0    6.8   -1.8
I     3.5    2.6   -8.2
H     5.3   -6.8   -3.5
I    -3.8   -8.4    1.1
I     8.5   -3.7   -0.2
H     6.8    5.3   -3.4
H     1.9    8.3   -3.8
C    -6.5   -0.7    6.7
I     0.9   -2.4    9.0
H     2.9   -8.3    3.2
C    -6.4    5.5    4.1
I     1.0    8.5    3.8
N     6.1   -6.2   -3.7
H     7.5    0.8    5.8
H    -7.3    3.7    4.9
H     8.4    0.0    4.6
H     7.5    4.4    4.0
I    -8.8    3.6    1.2
H    -7.9   -3.7   -3.8
H    -4.8    7.7   -3.1
N    -7.9    1.1   -5.3
N     3.3   -8.0    4.1
I     1.0    6.4   -7.1
H    -5.9    5.7    5.0
P     3.6   -3.7   -8.2
I     8.5    3.6   -3.0
H     5.1    7.7   -3.1
C     6.0    7.1   -2.8
H     6.1   -6.0   -4.7
H     6.0    6.1   -4.7
I     1.1   -2.1   -9.5
H     7.5   -1.7    6.1
I     3.7   -8.6   -3.1
I    -3.9   -5.6   -7.1
H    -7.6    1.5   -6.2
P     0.9    3.9    9.1
H    -7.4   -0.0    6.6
H    -5.8   -6.3    5.0
C    -6.3   -6.6    4.1
P    -1.3   -9.9   -0.2
H     2.7   -8.3    4.9
P     1.0    9.9    1.0
I    -1.6    5.9    8.0
N     8.3    0.2    5.6
H    -6.5   -1.3    7.5
I    -4.0   -2.3    9.1
H    -8.8   -4.8   -1.7
I    -1.5   -6.2    8.0
I    -4.0    8.6    3.9
H     7.7   -5.2    4.3
I    -8.8   -3.5    3.8
H     8.4    5.2    2.6
H    -7.3   -6.0    4.0
H    -7.9   -6.0   -2.7
H     6.9   -6.8   -3.4
H    -7.4    6.0    4.0
I    -4.0    6.4   -7.1
P     1.0    4.2   -9.4
I    -3.8   -2.1   -9.4
I     8.6   -2.3   -5.4
H    -8.0    6.1   -2.7
C     8.4    5.0    3.7
I     3.3    5.9    8.0
I     6.1   -8.4    1.1
H     4.2   -8.6    4.2
N    -8.8   -4.3   -3.8
C     8.4   -1.1    6.4
I    -6.4    8.4   -0.3
P     3.7   -9.9   -0.3
P    -4.1    3.9    9.0
C    -8.8   -5.3   -2.7
I    -1.6    2.3   10.3
I     3.4   -6.2    8.0
H    -9.8    0.8   -4.3
I    -6.4    2.6   -8.2
P    -4.0    9.9    1.1
H     6.9    7.7   -3.0
C    -9.4    1.2   -5.2
H     9.2    0.8    5.8
I     6.1   -5.6   -7.1
H    10.1    0.8   -4.3
H    -9.6   -3.7   -3.8
P    -6.3   -3.7   -8.2
H     9.3    4.4    4.0
I    -6.3   -8.6   -3.1
H     7.6    6.8    4.3
H    -8.8   -4.8   -4.7
I     5.9   -2.3    9.1
I     5.9    8.6    3.9
I    11.0    0.2   -1.3
I     3.3    2.3   10.3
P    -4.0    4.1   -9.5
P    -1.5   -3.9   10.3
H    -5.7   -8.6    4.2
H    -1.4   -0.6  -11.0
N    -6.6   -8.0    4.1
H     0.3   -9.8   -5.4
H     8.3   -0.8    7.5
H     8.5   -6.8    2.6
I    -1.4    9.7   -5.4
N     8.5   -5.8    4.5
H     9.3   -1.6    6.1
P    11.0   -2.1    1.0
I    -9.0    2.5    6.3
I     6.0    6.4   -7.1
H    -9.7    2.2   -5.4
H    -7.1   -8.3    3.2
P     5.8    3.9    9.0
N     8.4    6.2    4.5
I     6.1   -2.1   -9.4
C    -8.9    6.7   -2.7
P   -11.3    2.1   -0.2
H     7.6   -7.6    4.0
I     1.0   -9.5    6.3
H     2.5  -10.3   -4.5
I   -11.3   -0.1    2.1
P     3.4   -3.9   10.3
H     9.3   -5.2    4.3
H    -9.8    0.6   -6.1
H     2.6    9.9    5.3
H    10.2   -3.7   -3.8
H     3.5   -1.1  -11.0
P     6.0    9.9    1.1
H    -8.9    7.3   -1.7
H    10.1    2.2   -5.4
C     8.5   -7.1    3.7
I    11.1    3.6    1.2
H    -9.7   -5.9   -2.8
C    10.4    1.2   -5.2
H     8.4    6.1    5.5
H    10.0    0.6   -6.1
P    -6.2   -9.9   -0.3
H     8.5   -6.0    5.5
H    -2.7  -10.2   -5.2
P    -1.5    8.4   -8.2
I     3.4    9.9   -5.5
I     8.4    8.4   -0.2
I    -6.6    5.9    8.0
H    -9.8    6.1   -2.8
I   -11.3   -3.7   -0.2
P     6.0    4.1   -9.5
I    -6.5   -6.2    8.0
I     1.2  -11.9   -1.3
H     0.3  -11.2   -4.3
H    -7.2   -8.3    4.9
H    10.1   -5.9   -2.8
H    10.0    6.1   -2.8
H     4.2    9.9    5.4
C     0.6  -10.9   -5.2
I     8.4    2.6   -8.2
H   -10.5    4.4    4.0
I    -4.0   -9.6    6.2
H    -0.7   10.4    6.1
H    11.0   -4.8   -1.7
I    -8.7   -8.4    1.2
I    -1.4   -5.9  -10.5
H     2.7    0.2  -11.9
I    11.0   -3.5    3.8
H    -8.0    8.3   -3.8
I    -1.5   11.9    2.1
H   -10.7    0.8    5.8
P     1.0   -8.1    9.1
C    -1.4   -0.8  -12.1
I   -11.3    3.6   -3.0
H     9.2    6.8    4.3
P     3.5    8.4   -8.2
I    -1.5    6.1  -10.5
H    -4.5  -10.1   -5.3
N     2.1  -10.9   -5.3
H    -2.5   10.4    6.1
I     1.0   12.2   -1.3
H   -11.4    0.0    4.6
H   -10.6   -1.6    6.1
N    -8.9    7.7   -3.8
H    -8.8    7.2   -4.7
N     3.4   10.6    5.4
P     1.1   -7.9   -9.4
C     3.6   -0.4  -11.8
P     8.5   -3.7   -8.2
I     8.6   -8.5   -3.0
I    -1.3  -12.2    2.1
H    -0.5   -1.4  -12.3
H    -0.0    0.3   12.4
I    -6.6    2.3   10.3
H     2.4  -10.5   -6.2
H   -10.5   -5.2    4.3
N    11.1   -4.3   -3.8
H     3.4   11.1    4.6
C    11.0   -5.3   -2.7
H    -3.9    0.8   11.9
I    -3.8  -11.9   -1.3
I     1.1    2.7  -12.2
H     2.2    1.2   12.3
H     4.5    0.2  -11.8
C    -3.6  -10.7   -5.5
I     3.6   -5.9  -10.5
I     3.5   11.9    2.2
I    -1.4   -9.4   -8.2
I    -8.8   -5.6   -7.1
H     5.4  -10.1   -5.3
H    -5.7    9.9    5.4
I     3.5    6.1  -10.5
H    -2.3   -1.4  -12.4
I   -11.2   -2.3   -5.4
H    -0.7  -11.3    5.8
H    -0.6    1.0  -12.7
H    -6.4   -1.1  -11.0
H     9.4   -7.7    4.0
P    -6.5   -3.9   10.3
P    -4.0   -8.1    9.0
I    10.8    2.5    6.3
N   -11.5    0.2    5.6
C    -1.7   10.9    6.4
I     5.9   -9.6    6.2
H   -11.4    5.2    2.6
H    -3.0   11.5   -5.0
I    -4.0   12.2   -1.3
I     1.0   -5.9   11.4
I     3.7  -12.2    2.2
H    -2.3  -11.3    5.8
I    -8.9    8.5    3.8
I     8.3    5.9    8.0
I    -9.0   -2.4    9.0
H    -2.3    1.0  -12.7
H    -1.4  -12.0    4.6
P    -3.9   -7.9   -9.5
H    -5.4    0.2  -11.8
H     0.2  -11.5   -6.1
H    -3.7  -11.9   -3.7
N    -1.4    0.4  -12.9
I     0.9    6.1   11.4
H    -1.6   12.0    4.6
H    11.1   -4.8   -4.7
C   -11.4    5.0    3.7
I     3.6   -9.5   -8.2
H    11.9   -3.7   -3.8
I    -8.9    6.4   -7.1
I    -6.5    9.9   -5.5
N    11.9    1.1   -5.3
C    10.9    6.7   -2.7
I     8.4   -6.2    8.0
I    -8.8   -2.1   -9.5
P     8.7   -9.9   -0.2
