         400
 sphere cut out from bulk 
P     0.2   -0.6   -0.0
I    -1.6    2.0   -0.5
I     2.8    1.4    0.4
I    -0.3   -0.5    3.1
I     0.9   -0.7   -3.2
I    -2.3   -2.6   -0.5
H     0.1    2.7    2.3
H    -0.1    3.0   -2.4
I     2.2   -3.1    0.5
H    -3.4    0.0    2.3
H     3.4   -0.9   -2.6
H    -2.8    0.4   -3.3
C     0.5    3.1    3.1
H     0.4   -3.8   -2.3
H     4.2    0.2   -1.7
H    -3.9   -1.3   -2.0
H     3.6   -1.7    2.3
H     1.6    3.1    3.1
N     0.3    3.4   -3.2
H     0.6   -4.1    2.3
H     1.4    3.4   -3.2
H     0.1    2.6    4.0
H    -4.6    0.2   -1.7
N     4.3   -0.5   -2.4
H    -0.1    3.0   -4.0
N    -4.5   -0.5   -2.4
H     3.9    0.6    3.2
C    -4.0   -0.1    3.2
C    -3.8    0.0   -3.6
C     0.0   -4.3   -3.2
H    -3.5   -0.0    4.1
H     4.9   -1.3   -2.0
H    -1.1   -4.2   -3.2
H    -3.8   -2.2    3.2
N     4.2   -1.5    3.2
N     0.1    4.6    3.2
H     0.5    5.0    2.3
N     0.2   -4.6    3.2
H    -0.9   -4.5    3.2
H     0.4   -3.8   -4.1
H     3.6   -1.7    4.0
H    -0.9    4.6    3.2
C     4.8   -0.1    3.2
H     0.6   -4.1    4.0
P    -4.2    4.0   -0.0
H    -3.7   -0.7   -4.3
N    -4.6   -1.5    3.2
H     0.3    5.3   -2.3
C    -0.1    4.9   -3.2
H    -4.9    0.6    3.2
H     5.4    0.0    2.3
H    -5.2   -1.7    2.3
H     4.4    0.9   -4.0
H    -1.2    4.9   -3.2
H    -4.4    0.9   -4.0
H    -5.4   -0.9   -2.6
P     4.6    4.0   -0.0
C     5.0    0.0   -3.6
I    -6.0    1.4    0.4
I    -3.5    4.2    3.1
H     5.0   -2.2    3.2
P     0.2   -0.6    6.3
I     3.9    3.9   -3.2
P     0.3   -0.5   -6.3
I     2.1    6.0    0.5
I    -1.6    2.0   -5.9
H     0.5    5.0    4.0
N     0.4   -5.7   -3.2
P    -4.1   -5.2   -0.0
I     2.7    1.5    5.9
H     0.0   -6.2   -2.4
H     5.1   -0.7   -4.3
H     0.3    5.3   -4.1
H     5.3   -0.0    4.1
H     1.4   -5.8   -3.2
H    -5.2   -1.7    4.0
I    -3.4   -5.0    3.1
I    -2.1   -2.6   -5.9
C     0.6   -6.0    3.1
H     6.0    0.4   -3.3
I     2.2   -3.1    5.7
H     0.2   -6.5    2.3
P     4.7   -5.2   -0.0
I    -4.9    3.9   -3.2
I    -2.3    6.6   -0.5
I     6.5   -2.6   -0.5
H     1.7   -6.1    3.1
I    -1.7    2.0    6.8
I    -1.6   -7.1   -0.5
I     4.0   -5.2   -3.2
I    -6.6   -3.1    0.5
H     0.0   -6.2   -4.0
I     5.3    4.2    3.1
I     2.8    1.5   -6.8
I     7.1    2.0   -0.5
I    -2.2   -2.6    6.7
H     0.2   -6.5    4.0
I    -4.8   -5.2   -3.2
I     2.3   -3.1   -6.9
I     5.4   -5.0    3.1
I     2.9   -7.8    0.4
H    -7.2    3.1    3.1
P    -4.1    4.0   -6.3
H    -3.9    6.9    3.2
I    -7.9   -0.7   -3.2
H     3.5    7.4    2.3
P     0.1    8.6   -0.0
I     2.1    6.0    5.7
P    -4.2    4.0    6.3
I    -6.1    1.5    5.9
P    -8.6   -0.6   -0.0
H    -7.4    3.4   -3.2
P     4.6    4.0    6.3
P     4.7    4.0   -6.3
H     0.2    2.7   -8.6
P     9.0   -0.6   -0.0
I     8.4   -0.5    3.1
H     4.9    6.9    3.2
I    -6.7    6.0    0.5
H    -4.0    7.9   -2.0
H    -0.1    2.9    8.6
P    -4.1   -5.1   -6.3
I     0.8    8.5   -3.2
I    -2.2    6.6   -5.9
H    -3.4   -0.0   -8.5
P    -4.1   -5.1    6.3
H     3.5    7.4    4.0
H    -3.8   -0.8    8.3
I    -0.4    8.6    3.1
I    -6.0    1.5   -6.8
N     4.1    7.6    3.2
I     6.4    6.6   -0.5
I    -6.6   -3.1    5.7
I     6.7   -2.6   -5.9
H     3.3    8.3   -2.6
I    -1.5   -7.1   -5.9
H     0.3   -3.8    8.5
H     7.7   -4.2   -3.2
H    -8.7    2.7    2.3
P     4.7   -5.1    6.3
P     4.7   -5.1   -6.3
H    -5.3    7.4    2.3
C    -8.3    3.1    3.1
H     4.8    7.9   -2.0
I     2.2    6.1   -6.9
N    -4.7    7.6    3.2
H    -8.2   -4.1    2.3
I     7.2    2.0   -5.9
H    -8.4   -3.8   -2.3
H     8.7    3.0   -2.4
I     0.8   -0.7    9.5
H     3.7   -1.7   -8.6
I    -0.3   -0.5   -9.5
H     8.9    2.7    2.3
H     0.6   -4.1   -8.6
H     7.6    4.9   -3.2
I    -2.3    6.6    6.7
H    -8.9    3.0   -2.4
H     7.9    4.6    3.2
H     7.9   -4.5    3.2
I    -9.1   -0.5    3.1
N    -8.5    3.4   -3.2
H     5.0   -0.8    8.3
H     4.3    0.8    8.7
P     0.3   -9.7   -0.0
I     6.6   -2.6    6.7
H    -2.7   -8.7   -3.3
H    -2.9    0.4    9.3
I    -5.9   -7.8    0.4
H    -4.5    0.8    8.7
C    -3.9    0.0    9.0
H    -7.1   -6.1    3.1
H    -7.4   -5.8   -3.2
N     4.2    8.6   -2.4
H    -5.3    7.4    4.0
I    -1.6   -7.1    6.8
H    -8.7    2.6    4.0
I    -6.5   -3.1   -6.9
H    -8.3    5.0    2.3
C     0.6    3.1   -9.5
H    -3.3   -9.1    2.3
H     4.0   -8.6    3.2
H     0.6    5.1   -8.6
I     7.1    2.0    6.8
N     0.2    3.4    9.4
H    -8.2   -4.1    4.0
N    -4.6    8.6   -2.4
H     4.3   -8.9   -1.7
H     0.3    5.3    8.5
I     2.8   -7.7    5.9
H    -3.5    9.1    2.3
H     8.7    3.0   -4.0
H     5.4   -0.0   -8.5
H     1.3    3.3    9.4
H    -8.4   -3.8   -4.1
H     1.7    3.1   -9.5
H     8.9    2.6    4.0
I    -0.3   -9.7    3.1
H    -4.3   -8.3   -4.0
H    -5.1   -1.7   -8.6
I     7.2   -7.1   -0.5
H    -4.5   -8.9   -1.7
H    -8.9    3.0   -4.0
H     4.4   -8.3   -4.0
C    -4.0   -0.1   -9.4
H    -3.8    8.4   -4.3
I     9.7   -0.7   -3.2
H     9.2   -3.8   -2.3
H     4.0    0.6   -9.4
N     9.1    3.4   -3.2
N    -8.6   -4.6    3.2
C     4.9    0.0    9.0
H    -5.5    8.3   -2.6
H    -8.5    5.3   -2.3
C    -8.8   -4.3   -3.2
C     9.3    3.1    3.1
C     8.8   -4.3   -3.2
N    -8.7    4.6    3.2
H     4.1    9.3   -1.7
I     1.0   -9.8   -3.2
H    -4.8   -8.6    3.2
C    -0.1   -4.3    9.4
H    -1.2   -4.3    9.4
C    -4.1    9.0    3.2
H    -3.8   -2.2   -9.4
C    -3.7   -9.1   -3.6
N     8.9    4.6    3.2
H     9.4   -4.1    2.3
N     4.3   -1.5   -9.4
C     8.7    4.9   -3.2
H    -0.8   -4.5   -9.5
H    -8.3    5.0    4.0
H    -2.9    9.5   -3.3
N     0.3   -4.6   -9.5
N     0.2    4.6   -9.5
H     3.3   -0.9   10.0
N     9.0   -4.6    3.2
H    -4.8    0.6   -9.4
C     4.8   -0.1   -9.4
N    -4.5   -1.5   -9.4
H    -0.9    4.7   -9.5
C    -0.2    4.8    9.4
H    -0.1   -6.2    8.6
H    -4.7    9.3   -1.7
I     2.8   -7.7   -6.8
C    -4.0   -9.3    3.2
H    -3.5    9.1    4.1
C    -3.9    9.2   -3.6
H    -3.4   -9.2    4.1
C    -8.9    4.9   -3.2
P    -8.5   -0.5   -6.3
C     4.7    9.0    3.2
P     0.1    8.6    6.3
N    -8.4   -5.7   -3.2
I   -10.4    2.0   -0.5
P    -8.6   -0.6    6.3
C    -8.2   -6.0    3.1
H    -0.2    2.9   10.3
H    -1.2    4.9    9.4
I    -6.7    6.0    5.7
H     5.0    8.4   -4.3
P     0.2    8.6   -6.3
H     0.2    2.7  -10.4
H     0.3   -6.5   -8.6
H     9.2   -3.8   -4.1
H     9.3    5.0    2.3
H    -3.3    0.0  -10.3
H     9.1    5.3   -2.3
H    -8.5    5.3   -4.1
H     5.3    9.1    2.3
I     2.7   10.5    0.4
N     4.4   -9.7   -2.4
N    -4.4   -9.7   -2.4
H     5.5   -9.1    2.3
I     3.8    3.9    9.5
H     3.8    9.7    3.2
H     3.5  -10.0   -2.6
H     5.0   -2.2   -9.4
I    -3.4    4.2   -9.5
C     4.8   -9.3    3.2
H     9.4   -4.1    4.0
P     9.0   -0.6    6.3
H     0.3   -3.8   10.3
H    -8.8   -6.2   -2.4
C     5.1   -9.1   -3.6
C     4.9    9.2   -3.6
H     8.8   -6.2   -2.4
I     6.6    6.6   -5.9
H     5.9    0.4    9.3
H    -8.6   -6.5    2.3
N     0.3   -5.7    9.4
H     3.7   -1.7  -10.3
P     9.1   -0.5   -6.3
N     4.2   -0.5   10.2
H     0.6   -4.1  -10.3
H    -9.7   -4.5    3.2
H     6.1   -8.7   -3.3
H     1.4   -5.8    9.4
H    10.2    3.4   -3.2
N    -4.6   -0.5   10.2
H    -9.9   -4.2   -3.2
C     0.7   -6.0   -9.5
I    -3.3   -5.0   -9.5
H    -9.7    4.6    3.2
H    10.4    3.1    3.1
H    -3.8  -10.4   -2.0
H     9.3    5.0    4.0
H     9.0   -6.5    2.3
N     9.2   -5.7   -3.2
H     5.3    9.1    4.1
I    -1.7   11.2   -0.5
I    -6.6    6.1   -6.9
H     9.1    5.3   -4.1
H    -5.0    9.7    3.2
I    -5.0    3.9    9.5
I   -11.1   -2.6   -0.5
H     1.7   -6.1   -9.5
I     6.5    6.6    6.7
I    -6.0   -7.7    5.9
H    -3.7   -9.9   -4.3
I    11.0   -3.1    0.5
H    -5.5   -0.9   10.0
H     5.4   -9.2    4.1
H    -4.0   -1.3   10.7
H    -8.8   -6.2   -4.0
H     0.6    5.1  -10.3
H     8.8   -6.2   -4.0
I     3.9   -5.3    9.5
H    -8.6   -6.5    4.0
P     0.3   -9.7    6.3
H   -10.0    4.9   -3.2
P     0.4   -9.7   -6.3
C     9.4   -6.0    3.1
H     4.3   10.0   -4.0
H     0.2    5.3   10.3
H    -5.1   -1.7  -10.3
H     5.5    0.0  -10.3
H    -5.3  -10.0   -2.6
I    11.6    1.4    0.4
H    -4.5   10.0   -4.0
H     3.7  -10.8    2.3
H     5.9    9.5   -3.3
I     5.4    4.2   -9.5
H     4.1    0.2   11.0
H     5.0  -10.4   -2.0
I     7.3   -7.1   -5.9
H     4.8   -1.3   10.7
H     9.0   -6.5    4.0
I    -6.0   -7.7   -6.8
I    -4.9   -5.3    9.5
I    -2.2  -11.7   -0.5
H    -4.7    0.2   11.0
N     4.3  -10.7    3.2
H     3.6    7.4   -8.6
H     5.1   -9.9   -4.3
H    -0.1   -6.2   10.3
H     0.0   11.8    2.3
N    -4.5  -10.7    3.2
I     5.5   -5.0   -9.5
I    -8.0    8.5   -3.2
H   -11.6    0.4   -3.3
I   -10.4    2.0   -5.9
H     3.7  -10.9    4.0
I    -6.1   10.5    0.4
I     7.2   -7.1    6.8
H    10.2   -5.8   -3.2
H    -5.1  -10.8    2.3
P    -8.7    8.6   -0.0
H     0.2   -6.5  -10.4
H    -7.1    3.1   -9.5
H    -3.8    6.9   -9.4
H    -0.2   12.1   -2.4
P     8.9    8.6   -0.0
I    -1.7    2.0   12.1
I     2.6   10.6    5.9
I    -8.0   -0.7    9.5
H    -3.8  -11.4    3.2
H    -3.9    8.4    8.3
I     8.4    8.6    3.1
H   -12.2    0.0    2.3
H    -8.6    2.7   -8.6
H     0.0   11.8    4.0
I    10.9    6.0    0.5
I     2.3  -12.3    0.5
H    12.2   -0.9   -2.6
H    -7.5    3.3    9.4
H    10.5   -6.1    3.1
H    -5.2    7.4   -8.6
H     8.7    2.9    8.6
H    -8.2   -4.1   -8.6
I   -10.4   -7.1   -0.5
H    -8.5   -3.8    8.5
I    -2.3   -2.6   12.1
P     0.1   -0.6   12.6
I   -10.5    2.0    6.8
P     0.3   -0.5  -12.6
H    -5.1  -10.9    4.0
C     0.4   12.3    3.1
I     2.9    1.4  -12.3
I     2.3   -3.1  -12.1
