         400
 sphere cut out from bulk 
H     0.9    0.5   -0.1
N     0.9    1.1    0.8
H    -0.0    1.5    1.0
H     0.7   -0.6    2.0
C     1.4    0.2    1.9
H     1.6    1.9    0.6
I     0.6   -0.6   -2.4
H     2.4   -0.1    1.7
H    -1.8    0.2   -2.4
H     1.4    0.8    2.8
H    -2.6    2.2   -1.2
I    -2.1    2.6    1.5
N    -2.8    0.5   -2.5
H    -3.3   -0.1   -1.8
I    -1.5   -2.6    2.8
C    -3.0    2.0   -2.2
P     1.9   -3.5   -2.3
H    -2.5    2.6   -2.9
H    -3.1    0.3   -3.4
H     1.4    0.3   -4.6
I     2.9    3.8   -0.0
H    -3.1    0.8    3.6
I     4.4   -2.0   -0.8
I    -4.5   -2.0   -0.8
H    -4.1    2.2   -2.2
H    -2.1   -0.1    4.7
I     3.0   -2.6    3.6
C    -3.1    0.2    4.5
H     4.9    2.2   -2.2
I    -0.2    4.6   -3.6
H    -3.8   -0.6    4.4
N     1.7    0.5   -5.5
P    -4.1   -4.0    1.6
H     5.7   -0.1   -1.8
I    -0.7   -4.7   -3.6
I     2.4   -5.5   -0.0
I     2.4    2.6    4.9
H     2.0    2.6   -5.1
H     2.7    0.2   -5.6
H     0.4    2.2   -5.8
P     0.4   -4.0    4.8
H     1.2   -0.1   -6.2
C     1.5    2.0   -5.9
P     4.9   -4.0    1.6
P    -3.5    5.3    1.6
C     6.0    2.0   -2.2
N     6.2    0.5   -2.5
P     2.4    5.8   -2.3
N    -3.5    1.1    5.6
H    -2.9    1.9    5.8
H    -6.5   -0.1    1.7
H     5.8    0.3   -3.4
H     5.2   -0.6    4.4
H     6.4    2.2   -1.2
I    -3.9   -0.6   -5.6
H     5.9    0.8    3.6
I    -6.0    3.8   -0.0
P    -2.6   -3.5   -5.7
H     4.5    1.5    5.4
H    -4.5    1.5    5.4
P     0.9    5.3    4.8
I    -1.0    6.6    2.8
I    -2.6   -6.7    1.5
C     5.9    0.2    4.5
H     1.9    2.2   -6.8
I    -5.9   -2.6    3.6
I     6.8    2.6    1.5
H    -3.6    0.5    6.5
I    -0.0   -2.0   -7.2
I    -0.0   -2.0    7.2
I     3.8   -4.7   -4.4
H     1.1   -7.4    0.6
H     6.5    2.6   -2.9
H     7.2    0.2   -2.4
I     5.0   -0.6   -5.6
H    -7.4    1.9    0.6
I    -1.6    3.8    6.4
I     4.3    4.6   -4.4
P     5.4    5.3    1.6
C    -7.6    0.2    1.9
H    -3.1   -7.1   -1.2
N     5.4    1.1    5.6
I    -4.6    4.6   -4.4
H    -0.5   -7.8    1.0
H    -3.0   -6.7   -2.9
H    -8.1    0.5   -0.1
H    -7.6    0.8    2.8
N    -8.0    1.1    0.8
H     1.9    2.2    7.6
P    -7.0   -3.5   -2.3
I    -5.2   -4.7   -4.4
N     0.4   -8.2    0.8
H     1.2   -0.1    8.2
H     6.9   -0.1    4.7
I     3.5    6.6    3.6
I    -4.0    7.3   -0.8
H    -6.2    0.2   -5.6
I     7.5   -2.6    2.8
C    -3.5   -7.3   -2.2
P    -2.1    5.8   -5.7
H     5.3    0.5    6.5
H    -8.2   -0.6    2.0
I     1.9   -6.7    4.9
I    -6.5   -5.5   -0.0
H     6.0    1.9    5.8
H     1.5   -6.7   -5.1
I    -6.6    2.6    4.9
H     4.4   -7.1   -2.2
I    -2.1   -5.5    6.4
H    -3.6    0.5   -7.9
I    -8.4   -0.6   -2.4
H    -4.6   -7.1   -2.2
H     0.4   -8.8   -0.1
I     4.9    7.3   -0.8
H    -7.6    0.3   -4.6
H     0.4    2.2    8.6
C     1.5    2.0    8.6
H     0.9   -8.5    2.8
H    -6.9    2.6   -5.1
H     1.2    8.7    2.0
I    -1.6    3.8   -8.0
I     1.1    8.7   -2.4
P    -6.5    5.8   -2.3
N     1.7    0.5    8.9
H     8.9    1.5    1.0
H    -9.0    1.5    1.0
N    -7.3    0.5   -5.5
H    -0.1   -7.1   -5.8
P     6.4   -3.5   -5.7
H     2.7    0.2    8.9
H    -2.9    1.9   -8.6
C     0.9   -9.1    1.9
H     5.9   -7.1   -1.2
I    -5.4    6.6    3.6
I     6.3   -6.7    1.5
C     5.5   -7.3   -2.2
C     1.0   -7.3   -5.9
H     6.0   -6.7   -2.9
N    -3.5    1.1   -8.8
H     5.3    0.5   -7.9
H    -2.3   -9.1   -2.4
I    -3.9   -0.6    8.8
C    -7.5    2.0   -5.9
N    -3.3   -8.8   -2.5
P    -2.6   -3.5    8.7
H     2.9    9.2    1.7
H     1.9   -9.4    1.7
H    -2.8    9.2   -1.8
I     9.5   -0.6   -2.4
H     9.8    0.5   -0.1
H    -3.6   -8.5    3.6
H     9.7   -0.6    2.0
C     1.9    9.5    1.9
H     2.0    2.6    9.4
H     1.4    9.8   -0.1
H    -1.3    9.5   -2.4
I    -2.1   -5.5   -8.0
H    -7.8   -0.1   -6.2
H    -2.1   -0.1   -9.7
N     9.9    1.1    0.8
H     1.4    0.3    9.9
H     1.4   -7.1   -6.8
H    -3.4   -7.4    5.8
H    -7.0    2.2   -6.8
H     0.2   -9.9    2.0
H     0.9   -9.0   -4.6
I     5.0   -0.6    8.8
H     4.5    1.5   -9.0
I     2.4    2.6   -9.6
H    -4.5    1.5   -9.0
I     8.3   -4.7   -3.6
I     0.1   -9.9   -2.4
H    -3.3    8.7    4.4
I     0.5    7.3   -7.2
I     0.5    7.3    7.2
H    -3.8   -9.4   -1.8
H    -3.6   -9.0   -3.4
H     4.0   -7.8    5.4
N    -2.3    9.8   -2.5
N     5.4    1.1   -8.8
C    -3.1    0.2  -10.0
H    -1.6    9.2    4.7
P     0.4   -4.0   -9.6
N     1.2   -8.8   -5.5
N     1.4   10.3    0.8
I     7.4    3.8    6.4
H    -2.6    9.6   -3.4
I     8.8    4.6   -3.6
C    10.3    0.2    1.9
H     1.4   -7.1    7.6
H    -8.5    2.2   -5.8
P    -8.5   -4.0    4.8
H    -7.0    2.2    7.6
H     5.4   -8.5    3.6
P     6.9    5.8   -5.7
H     1.9   10.1    2.8
H    10.5    1.9    0.6
P    -2.1    5.8    8.7
H     6.0    1.9   -8.6
C    -3.6   -9.1    4.5
N     5.7   -8.8   -2.5
H    10.3    0.8    2.8
I     8.0    6.6    2.8
H    -5.0   -7.8    5.4
P    -8.0    5.3    4.8
H    -3.8   -0.6  -10.1
H     1.9    9.6   -4.6
N    -4.0   -8.2    5.6
I    -9.1    4.6   -3.6
H     0.5   10.8    1.0
H    -6.2    0.2    8.9
C    -2.6    9.5    4.5
H    -7.9   -7.4    0.6
H    -2.6   -9.4    4.7
H     2.2   -9.1   -5.6
H     5.2   -9.4   -1.8
I    -3.4    8.7   -5.6
I     6.9   -5.5    6.4
I    -7.1   -6.7    4.9
H     5.5   -7.4    5.8
H   -10.7    0.2   -2.4
H     5.3   -9.0   -3.4
P     0.9    5.3   -9.6
H    -2.6   10.1    3.6
I   -10.4   -2.6    2.8
H    -6.0    9.2    1.7
N     4.9   -8.2    5.6
H    -0.1   -7.1    8.6
H     6.2    9.2   -1.8
H     1.7    9.2   -6.2
H     9.4    2.2   -5.8
H     5.7    8.7    4.4
H    -7.4   -6.7   -5.1
P     9.4   -4.0    4.8
H    10.3    0.3   -4.6
H     0.7   -9.4   -6.2
I    -9.6   -4.7   -3.6
H    -3.1    0.8  -10.8
H    -7.8   -0.1    8.2
H     5.2   -0.6  -10.1
C     1.0   -7.3    8.6
P     6.4   -3.5    8.7
H     2.1   11.2    0.6
H    -3.1    0.3   11.0
I   -11.1    2.6    1.5
C     5.4   -9.1    4.5
H    11.3   -0.1    1.7
N     2.2    9.8   -5.5
N    -7.3    0.5    8.9
H     6.7   -9.1   -2.4
H     3.2    9.5   -5.6
I     3.0   -2.6  -10.8
I     7.4    3.8   -8.0
C    -7.5    2.0    8.6
H     8.4   -7.8    1.0
C     5.9    0.2  -10.0
P    10.9   -3.5   -2.3
H     1.5   -6.7    9.4
I     8.9   -2.0   -7.2
I     8.9   -2.0    7.2
H    -4.3   -9.9    4.4
H    -4.1   -8.8    6.5
H    -2.1   11.5   -1.2
I     3.8   -4.7   10.0
I    -9.0   -2.0   -7.2
I    -9.0   -2.0    7.2
C    -2.5   11.3   -2.2
H     1.4    0.8  -11.6
I     5.5    8.7   -5.6
H   -11.5    2.2   -1.2
I    -0.2    4.6   10.9
I     4.3    4.6   10.0
H     4.7   -9.9    4.4
H    -7.7    8.7    2.0
I     1.9   -6.7   -9.6
I    -0.7   -4.7   10.9
H    10.1   -0.1   -6.2
I    -6.6    2.6   -9.6
N    -8.5   -8.2    0.8
I     6.9   -5.5   -8.0
H    -7.0   -9.4    1.7
H    -3.4   -7.4   -8.6
H     6.9   -0.1   -9.7
H    -6.9    2.6    9.4
I    -4.6    4.6   10.0
I    -7.9    8.7   -2.4
H     4.8   -8.8    6.5
H     6.3    9.6   -3.4
H   -11.0   -0.1    4.7
I     3.9  -11.3   -0.8
N   -11.7    0.5   -2.5
C    -7.1    9.5    1.9
N    10.6    0.5   -5.5
H    -8.1   -8.5    2.8
H    -2.5    2.6   11.5
H   -11.4    2.6   -2.9
I    -1.5   -2.6  -11.7
I    -1.6   11.9    1.5
I     0.6   -0.6   12.1
N     6.7    9.8   -2.5
C    10.4    2.0   -5.9
H    -1.8    0.2   12.0
N    -3.0   10.3    5.6
H    -3.1    9.8    6.5
H    -3.6   11.5   -2.2
P     9.9    5.3    4.8
I    -5.2   -4.7   10.0
I    -4.4   -9.9   -5.6
I    -9.9    6.6    2.8
H    -8.6   -8.8   -0.1
I     4.5   -9.9   -5.6
C   -11.9    2.0   -2.2
C    -8.1   -9.1    1.9
N    -2.8    0.5   12.0
C     6.4    9.5    4.5
C    -8.0   -7.3   -5.9
H    -8.5    2.2    8.6
H     6.4   -9.4    4.7
H    -9.5   -7.8    1.0
H    11.0    2.6   -5.1
H     5.9    0.8  -10.8
H    -2.0   11.8   -2.9
H   -12.2   -0.1   -1.8
I    -5.0  -11.3   -0.8
H    -7.6    9.8   -0.1
I    -2.0  -11.9    2.8
H    -7.5   -7.1   -6.8
H     0.7   -0.6  -12.4
I    11.8    3.8   -0.0
H     5.8    0.3   11.0
H    -7.6    0.3    9.9
H     1.7    9.2    8.2
H    -5.7    9.5   -5.6
H     7.7    9.5   -2.4
H    10.0   -7.4    0.6
H     6.4   10.1    3.6
N     9.4   -8.2    0.8
H    -4.1   -8.8   -7.9
H     0.7   -9.4    8.2
H   -12.1    0.3   -3.4
P     6.9    5.8    8.7
N     1.2   -8.8    8.9
H     4.0   -7.8   -9.0
H   -12.0    0.8    3.6
I    11.3    2.6    4.9
H    -6.7   -9.1   -5.6
C     1.4    0.2  -12.5
I    11.3   -5.5   -0.0
I    -5.9   -2.6  -10.8
H    -7.1   10.1    2.8
H     7.4    9.2    4.7
H     5.5   -7.4   -8.6
H    -4.0   10.8    5.4
N    -4.0   -8.2   -8.8
I     2.5  -11.9    3.6
P     1.9   -3.5   12.1
H    -7.1    9.6   -4.6
I    12.0   -2.6    3.6
H     4.8   -8.8   -7.9
C    -3.0    2.0   12.3
H     8.9   -7.1   -5.8
H     9.3   -8.8   -0.1
H    -2.4   11.2    5.8
N    -7.5   10.3    0.8
I    -3.4    8.7    8.8
C     2.0   11.3   -5.9
C   -12.0    0.2    4.5
H     2.2   -9.1    8.9
H     5.4   11.5   -2.2
H    -7.5   -7.1    7.6
H     0.9   11.5   -5.8
H    -9.0   -7.1   -5.8
I   -10.5    3.8    6.4
H     9.4    2.2    8.6
H    11.7    0.2   -5.6
H    -5.0   -7.8   -9.0
N    -7.8   -8.8   -5.5
H    -8.1   -9.0   -4.6
H     2.4   -0.1  -12.7
P    11.4    5.8   -2.3
H    -3.1    9.8   -7.9
H    10.9    2.2   -6.8
N     4.9   -8.2   -8.8
H     5.0   10.8    5.4
P     1.4  -12.8   -2.3
H    -3.3   -0.1   12.6
H    10.1   -0.1    8.2
H    -4.1    2.2   12.3
H    -6.9   11.2    0.6
N    -6.7    9.8   -5.5
H     2.5   11.8   -5.1
H     5.8    9.8    6.5
I     2.9   11.9    4.9
C     6.5   11.3   -2.2
I     3.5    6.6  -10.8
N     5.9   10.3    5.6
H    -7.3    9.2   -6.2
H     9.8   -8.5    2.8
P   -11.5   -3.5   -5.7
I    -8.5    7.3   -7.2
