         400
 sphere cut out from bulk 
P     0.3   -0.0   -2.1
P     0.4   -0.0    2.1
I    -0.8    2.1    0.0
I    -0.7   -2.2   -0.0
I     2.8    0.1   -0.0
H    -3.2   -2.7    1.3
H    -3.2    2.8   -1.5
H     3.9    2.1   -1.1
I    -2.0   -0.2    4.2
H    -0.6    4.3    1.7
I    -2.0    0.0   -4.2
H    -0.3   -4.4   -1.7
H    -3.9   -1.5    2.5
I     1.6   -2.0   -4.2
H    -3.8    1.7   -2.7
I     1.6    2.0    4.3
C    -4.1   -2.3    1.8
I     1.7   -2.2    4.2
I     1.6    2.2   -4.2
H     4.6   -1.9    1.0
H     3.4    2.9   -2.5
H    -4.7   -1.9    1.0
H     0.8    4.3    2.9
C    -3.9    2.7   -2.3
N     4.1    2.9   -1.8
H     1.1   -4.4   -2.8
C    -0.1    4.9    2.5
C     0.3   -5.0   -2.4
H     3.7   -3.0    3.0
H     4.0    3.8   -1.2
H    -3.7    3.5   -3.0
H    -5.5    2.1   -1.1
C     5.3   -2.3    1.8
H     1.2    5.8    1.1
H     4.2   -4.1    1.7
N     4.5   -3.4    2.4
H    -0.7    5.2    3.3
H    -0.4   -5.3   -3.2
H     5.5   -1.5    2.5
H     1.5   -5.9   -1.0
N    -5.2    2.9   -1.8
P     0.4   -0.1    6.3
P     0.4   -0.0   -6.3
N     0.5    6.1    1.8
N    -4.8   -3.4    2.4
H     5.6    1.7   -2.7
N     0.8   -6.2   -1.7
H    -4.2   -3.9    3.1
I    -6.5    0.1   -0.0
C     5.5    2.7   -2.3
H    -5.4    3.8   -1.2
H    -0.2    6.6    1.3
H    -5.1   -4.1    1.7
H     0.0   -6.7   -1.2
H     6.2   -2.7    1.3
H    -4.1   -1.6   -5.4
H     6.2    2.8   -1.5
H    -4.1    1.5    5.5
I     3.7    6.0    0.0
H    -5.9    2.9   -2.5
H    -5.7   -3.0    3.0
H     5.1   -3.9    3.1
H     0.9   -4.7    5.3
I     3.9   -6.1    0.2
H     0.9    6.7    2.5
H     1.2    4.2   -5.8
H    -3.5   -3.3   -5.4
H    -3.5    3.2    5.5
H     5.7    3.5   -3.0
H     1.2   -6.8   -2.4
H     4.1    2.8    5.5
H     4.1   -3.0   -5.4
C    -4.3   -2.7   -5.7
C    -4.3    2.5    5.8
H     5.3   -1.6   -5.4
H     5.3    1.5    5.5
I    -3.0   -5.9   -4.1
H    -0.9    5.4   -5.6
I    -3.3    6.0    4.3
I    -3.1   -6.0    4.3
I    -3.2    6.1   -4.1
C     5.1   -2.7   -5.7
H    -5.3   -3.0   -5.4
H    -5.3    2.8    5.5
C     5.1    2.5    5.8
H    -1.3   -5.4    5.9
I    -5.5   -6.1    0.2
N     0.9    4.8   -6.6
C     0.8   -5.5    6.0
I    -5.7    6.0    0.0
I    -1.7   -8.1    0.1
I    -2.0    8.1    0.1
H     0.6    6.4   -5.3
H     0.3    4.2   -7.3
C    -0.0    5.9   -6.1
I     7.3   -0.2    4.2
I     7.3    0.0   -4.2
H    -0.6   -4.5    7.2
N    -0.6   -5.4    6.7
H     0.8   -6.5    5.6
H     5.8    3.2    5.5
H     5.9   -3.3   -5.4
H    -3.3   -2.4   -7.6
I    -0.8    2.2   -8.4
I    -0.9    1.9    8.4
I    -1.0   -2.3    8.3
I    -0.9   -2.0   -8.4
H    -3.4    2.4    7.7
I     8.5    2.1    0.0
N    -4.3   -2.6   -7.2
I     2.9    0.1   -8.4
I     2.8   -0.2    8.4
H     1.5   -5.4    6.8
N    -4.3    2.5    7.3
I     8.6   -2.2   -0.0
H     1.7    5.1   -7.1
H     4.4   -1.9   -7.6
H     4.4    1.8    7.7
I    -7.7   -2.0   -4.2
I    -7.7   -2.2    4.2
I    -7.8    2.0    4.3
I    -7.8    2.2   -4.2
P    -9.0   -0.0    2.1
N     5.1   -2.6   -7.2
N     5.0    2.5    7.3
H    -4.9   -1.9   -7.6
P    -4.1   -8.0   -2.0
I     2.4    7.9    4.2
P    -9.0   -0.0   -2.1
H    -5.0    1.8    7.7
P    -4.4    8.0    2.2
I     2.7   -8.0   -4.0
I     2.4    8.2   -4.0
P    -4.1   -8.2    2.2
P    -4.4    8.1   -2.0
H    -0.3    6.5   -6.9
I     6.1    6.0    4.3
H    -0.2    9.5   -1.2
I     6.1    6.1   -4.1
H    -4.6   -3.5   -7.6
I     6.3   -5.9   -4.1
H    -0.8   -6.2    7.3
I     2.7   -8.3    4.2
H     4.7    3.4    7.7
H     4.7   -3.5   -7.6
P     4.9    8.0    2.2
H    -4.7    3.4    7.7
H     0.0   -9.6    1.3
I     6.2   -6.0    4.3
H     0.9    9.4   -2.4
P     5.0    8.1   -2.0
H    -8.2   -4.4   -2.8
P     5.2   -8.0   -2.0
H    -7.8   -5.9   -1.0
H     1.2   -9.5    2.5
H     8.8    4.3    1.7
P     9.7   -0.0   -2.1
P     5.2   -8.2    2.2
H    -3.3    2.6   -9.1
P     9.8   -0.0    2.1
H     6.0   -2.4   -7.6
H    -8.6    4.3    2.9
H     6.0    2.4    7.7
H    -8.1    5.8    1.1
N     0.5   10.0   -1.7
H    -3.5   -2.7    9.2
H     9.1   -4.4   -1.7
N     0.8  -10.1    1.8
I   -10.1   -2.2   -0.0
H     0.2    3.9    9.5
H     4.5    2.0   -9.1
H     4.3   -2.1    9.2
H     1.3   10.2   -1.0
I   -10.2    2.1    0.0
H    -0.5   -4.2   -9.6
P     0.3   -0.2   10.5
H    -4.9    2.0   -9.1
P     0.5    0.1  -10.5
H     1.5  -10.4    1.1
I    -6.5    0.1   -8.4
H     8.6    5.2    3.3
C    -9.1   -5.0   -2.4
I    -6.6   -0.2    8.4
H    -5.1   -2.1    9.2
N    -8.6   -6.2   -1.7
H    -9.6   -4.4   -1.7
N    -4.2    2.8   -9.4
I     3.6   10.1    0.2
C     9.3    4.9    2.5
H    -4.6    3.7   -9.1
H    -8.2    4.2   -5.8
I     3.6    5.7    8.5
I     3.7    6.0   -8.3
N    -4.4   -2.9    9.5
C    -9.4    4.9    2.5
H    -8.1   -6.8   -2.4
H     4.8    3.7   -9.1
N    -8.9    6.1    1.8
H     9.0   -5.3   -3.2
P    -4.2   -8.0   -6.2
H     4.6   -3.8    9.2
I     3.9   -5.9   -8.3
P    -9.0   -0.0   -6.3
I     7.4    8.1    0.1
I     4.0  -10.2    0.0
P    -9.0   -0.1    6.3
H     1.6    4.9    9.7
H    -4.7   -3.8    9.2
H   -10.0    4.3    1.7
H    -8.5   -4.7    5.3
H    -8.4    6.7    2.5
N     5.1    2.8   -9.4
N     4.9   -2.9    9.5
I     3.8   -6.1    8.4
C     9.6   -5.0   -2.4
P    -4.7    7.9    6.4
H     0.8   -9.8   -5.3
I     7.7   -8.1    0.1
H    -0.6   -5.9   -9.4
P     4.7    7.9    6.4
N     0.7    4.5   10.2
I    -6.6   -8.0   -4.0
H     0.5    9.7    5.6
P    -4.5    8.2   -6.2
H     5.9   -2.7    9.2
H     6.1    2.6   -9.1
I    -3.0  -10.1   -4.1
P     5.2   -8.0   -6.2
P    -4.4   -8.3    6.4
H     9.1    6.6    1.3
N    -0.5   -5.1  -10.1
I    -7.0    7.9    4.2
H     1.6   -5.2   -9.9
H    -0.7   10.9   -3.2
H     8.1   -5.4    5.9
P     4.9    8.2   -6.2
H    10.1    4.3    2.9
I    -6.7   -8.3    4.2
I    -6.9    8.2   -4.0
C    -0.0   11.2   -2.4
H    -0.4  -11.0    3.3
I    -3.0  -10.2    4.3
H     8.5    5.4   -5.6
H    -9.7   -5.3   -3.2
I    -3.3   10.3   -4.1
H    -9.3   -6.7   -1.2
P     9.7   -0.1    6.3
I    -5.4   -5.9   -8.3
I    -5.4  -10.2    0.0
C     0.2  -11.3    2.5
I    -3.4   10.2    4.3
P     9.7   -0.0   -6.3
P     5.0   -8.3    6.4
H     9.4   -6.7   -1.2
I    -1.8   -7.9   -8.3
I    -5.7   10.1    0.2
H    -7.7    5.1   -7.1
I    -5.6    6.0   -8.3
H     1.1    3.9   11.0
H    -0.4    6.3    9.9
H    -7.8   -5.4    6.8
N     9.9    6.1    1.8
H    10.5   -4.4   -2.8
H    -9.6    6.6    1.3
I    -5.7    5.7    8.5
N    -8.5    4.8   -6.6
H   -10.1    5.2    3.3
I    -5.5   -6.1    8.4
C    -8.6   -5.5    6.0
I    -2.2    8.1    8.4
I    -1.9   -8.1    8.4
H     0.0   -9.7   -6.9
I    10.9    2.0    4.3
I    -2.1    8.3   -8.3
H    -0.6   11.8   -1.7
I    11.0    2.2   -4.2
I    11.0   -2.0   -4.2
C     0.3  -10.3   -6.1
C     0.9   -5.3  -10.7
I    11.0   -2.2    4.2
H    -0.3  -11.9    1.7
N    10.2   -6.2   -1.7
I     8.4   -2.3    8.3
C    -4.2    2.8  -10.9
I     8.4    1.9    8.4
H    -1.2   -5.2  -10.8
H    -4.0    1.8  -11.3
H    -8.5   -6.5    5.6
C    -0.1    5.6   10.7
H     0.9   11.8   -2.8
H    -8.8    6.4   -5.3
I   -11.4   -0.2    4.2
I   -11.4    0.0   -4.2
I     8.5   -2.0   -8.4
I     8.5    2.2   -8.4
H     8.7   -4.5    7.2
H    10.6    5.8    1.1
H    -0.6  -10.8   -5.6
I    12.2    0.1   -0.0
C    -4.4   -2.9   11.0
H     1.1  -11.9    2.9
C     0.5   10.7    6.0
H    -3.4    3.5  -11.3
N     8.8   -5.4    6.7
H    -4.2   -1.9   11.4
H    -9.0    4.2   -7.3
H    -1.0    5.2   11.1
H     1.0   -4.5  -11.5
C     5.2    2.8  -10.9
H    -1.6   10.8    5.9
H    -3.6   -3.5   11.4
C     5.0   -2.9   11.0
H     4.2    3.1  -11.3
H    10.9   -5.9   -1.0
H    -1.0   10.0    7.3
H    10.3   -4.7    5.3
H     4.0   -3.2   11.4
H    10.3    6.7    2.5
I     5.9   10.2    4.3
C     9.4    5.9   -6.1
C    -9.4    5.9   -6.1
I     6.1   10.3   -4.1
H     0.6   11.4    5.3
H     5.1   -1.9   11.4
H     5.4    1.8  -11.3
I     6.4  -10.1   -4.1
I    -2.1   -0.2   12.5
I    -1.9    0.1  -12.6
H    10.5    4.2   -5.8
N    -0.8   10.8    6.7
H    -8.1   -9.5    2.5
I     6.4  -10.2    4.3
H     9.7    4.2   -7.3
H     1.3   10.7    6.8
I     1.5    2.0   12.6
I     1.7    2.2  -12.5
H    -8.4    9.4   -2.4
H    -5.2    3.1  -11.3
H     3.9   12.1    1.7
H    10.6   -6.8   -2.4
I     1.5   -2.2   12.5
I     1.8   -2.0  -12.6
H     8.6   -6.2    7.3
H     0.9   -6.3  -11.2
H   -10.2    5.4   -5.6
H   -12.5   -2.7    1.3
H   -12.5    2.8   -1.5
H     9.9    6.4   -5.3
H    -5.4   -3.2   11.4
H    -7.8  -10.4    1.1
H     0.5    6.2   11.5
C    10.1   -5.5    6.0
N    10.2    4.8   -6.6
H    -8.1   10.2   -1.0
H   -10.0   -4.5    7.2
N    -9.9   -5.4    6.7
H     9.1    6.5   -6.9
H     4.3  -12.4   -1.2
H     5.9    3.5  -11.3
H     9.1    9.5   -1.2
H     5.8   -3.5   11.4
N     1.1  -11.4   -6.6
H     2.0  -11.0   -7.1
H    10.2   -6.5    5.6
H    12.8    2.9   -2.5
H   -10.7   -5.4    5.9
H    -7.8    4.9    9.7
I   -10.2    2.2   -8.4
N    -8.6  -10.1    1.8
H    -5.4   12.1    1.7
H    -9.3   -9.6    1.3
I   -10.2   -2.0   -8.4
I   -10.3    1.9    8.4
H     1.5  -12.0   -5.8
H    -5.1  -12.4   -1.2
N    -8.8   10.0   -1.7
H    13.2    2.1   -1.1
H    -4.5   12.3    3.1
H     9.4   -9.6    1.3
I   -10.3   -2.3    8.3
H    -3.4  -12.7   -3.0
H    -9.6    6.5   -6.9
H   -13.1    1.7   -2.7
H   -13.2   -1.5    2.5
H    -9.6    9.5   -1.2
H     4.9   12.3    3.1
I     3.5   10.1    8.4
H    -7.7   -5.2   -9.9
C   -13.2    2.7   -2.3
I     7.2    8.1    8.4
N     4.2   12.8    2.4
H     8.8   -4.2   -9.6
I   -11.0   -8.1    0.1
H    13.0   -3.0    3.0
H    -2.9  -13.3   -1.5
I     3.7   10.3   -8.3
I     4.0  -10.2   -8.3
I     7.6   -7.9   -8.3
C   -13.5   -2.3    1.8
P    -8.9    0.1  -10.5
