         400
 sphere cut out from bulk 
P    -0.2   -2.1    0.2
I    -0.1    0.2   -2.1
I     2.3   -0.1    1.3
I    -2.6   -0.2    1.3
P     2.3    2.1   -1.1
P    -2.6    2.1   -1.0
I    -0.1    3.7    0.3
H     2.3   -0.0    3.7
I     2.3   -3.7   -1.2
I    -2.6   -3.7   -1.2
I    -0.1   -3.6    2.9
H    -1.7   -1.3    4.3
H     0.6    0.9   -5.0
P     4.8   -2.1    0.2
I     4.8    0.1   -2.2
H     1.5    0.6    5.0
N     2.3    0.0    4.7
H     1.4    4.2    3.2
P    -5.1   -2.1    0.2
H     0.1   -3.6   -4.2
I    -5.1    0.1   -2.2
H     1.4   -1.8    5.0
H    -2.6    4.6    1.8
H    -3.5   -1.1    4.3
H    -1.0    1.7   -5.3
C    -2.6   -1.4    4.9
H    -1.0   -5.0   -2.6
I     2.3    3.7   -3.8
H    -1.8    3.8    4.0
H     2.3    5.0    1.9
I    -2.5    3.7   -3.7
C    -0.1    1.4   -5.8
H     3.2    0.6    5.0
C     2.3   -1.3    5.3
I     4.8    3.6    0.3
H     0.6   -5.4   -2.6
C     2.3    4.7    2.9
I    -0.2    2.3    5.6
H     3.2    4.2    3.2
I    -5.1    3.6    0.3
H     3.2   -1.8    5.0
N    -0.3   -5.4   -3.2
H    -2.7   -2.5    5.1
C    -0.1   -4.6   -4.5
H    -2.4    0.4    5.9
N    -2.6    4.4    3.9
C    -2.6    5.3    2.7
H    -0.5    5.5   -3.4
H    -3.4    3.8    4.0
H     1.5   -5.3    3.5
H     0.4    2.3   -6.2
H    -0.8   -0.4   -6.5
H     4.8    0.0   -4.6
I     4.8   -3.6    3.0
N    -2.5   -0.6    6.1
H    -1.7    5.9    2.7
H    -1.7   -6.0    2.7
H    -5.1    0.0   -4.6
N    -0.3    0.4   -6.9
I    -5.1   -3.6    3.0
H    -1.0   -4.7   -5.0
H     2.3   -1.2    6.4
H    -1.7   -1.0    6.7
H     3.9   -4.0   -4.3
H     0.6    6.5   -2.6
H     3.1   -5.3    3.5
H     3.9   -0.5   -6.0
H     0.7   -5.0   -5.0
H    -4.2   -4.0   -4.3
N    -0.2    6.5   -3.2
H     4.7   -4.7   -2.9
H    -0.5   -6.4   -3.4
H     0.6    0.1   -7.3
H     3.9    1.9   -5.9
I     2.3   -2.2   -6.6
H    -4.2   -0.5   -5.9
N     2.3   -5.9    3.7
I     7.2   -0.2    1.3
H    -3.5    5.9    2.7
I    -2.6   -2.3   -6.5
H    -2.6    5.0    4.8
N     4.8    0.0   -5.6
H    -1.0    6.9   -2.6
N     2.3    6.0    3.7
H    -4.2    1.9   -5.9
H    -3.5   -6.0    2.7
H    -5.1   -4.7   -2.9
H     2.3   -6.9    1.9
H    -3.4   -0.8    6.7
N    -5.1    0.0   -5.6
H     1.5    6.6    3.5
P     7.2    2.1   -1.0
C    -2.6   -6.6    2.7
I    -7.5   -0.1    1.3
C     4.8   -4.6   -4.0
H    -0.9    0.8   -7.6
H     6.4   -1.1    4.3
I     4.8    2.3    5.6
I    -5.0    2.3    5.6
H     2.3    5.9    4.8
C    -5.1   -4.6   -4.0
P    -7.5    2.1   -1.1
H    -2.6   -7.3    1.8
C     4.8    1.4   -6.2
H     4.0    5.4   -4.3
H     2.3   -6.0    4.8
C     2.3   -7.2    2.9
H    -4.2    5.4   -4.3
H     3.1    6.6    3.5
C    -5.1    1.4   -6.2
H     5.7   -4.0   -4.3
H     5.6   -0.5   -5.9
I     7.3   -3.7   -1.2
I    -0.1   -8.2    0.3
H    -7.5   -0.0    3.7
H     5.7    1.9   -5.9
H    -6.7    0.6    5.0
H    -6.0   -4.0   -4.3
H    -5.9   -0.5   -6.0
H     6.4    3.8    4.0
H    -6.6    4.2    3.2
I    -7.6   -3.7   -1.2
H     1.4   -7.7    3.2
I    -0.2   -2.3    8.2
H    -6.6   -1.8    5.0
C    -0.1    7.3   -4.5
H     0.7    6.9   -5.0
H    -6.0    1.9   -5.9
I     2.3    8.2   -1.2
I    -2.6    8.2   -1.2
H     4.0   -6.5   -4.3
H     7.2    4.6    1.8
H    -2.6   -6.9    4.8
C     7.2   -1.4    4.9
I    -0.1    8.3    2.9
H     4.8    1.3   -7.3
H    -4.2   -6.5   -4.3
N    -2.6   -7.5    3.9
H    -1.0    7.2   -5.0
N     4.8   -5.9   -4.6
N    -7.5    0.0    4.7
H     5.6    5.4   -4.3
N     4.8    6.0   -4.6
H     3.2   -7.7    3.2
H    -5.0    1.3   -7.3
I     7.3    3.7   -3.7
N    -5.1   -5.9   -4.6
H     6.3    5.9    2.7
N    -5.0    6.0   -4.6
H    -5.9    5.4   -4.3
H     4.8    7.2   -2.9
H     7.1   -2.5    5.1
H     6.3   -6.0    2.7
P    -0.1    3.8    8.4
I    -7.5    3.7   -3.8
H    -7.5    5.0    1.9
H    -1.8   -8.1    4.0
H    -6.7   -5.3    3.5
H    -5.1    7.2   -2.9
H     8.1   -1.3    4.3
H     0.1    8.3   -4.2
H     6.4   -0.8    6.7
I     2.3   -8.2   -3.8
C    -7.5   -1.3    5.3
I    -2.6   -8.2   -3.7
N     7.2    4.4    3.9
C     7.2    5.3    2.7
C    -7.5    4.7    2.9
H     4.8   -5.9   -5.6
H     7.4    0.4    5.9
I     2.3    5.7    7.2
N     7.3   -0.6    6.1
H     4.8    6.0   -5.6
I     4.8   -8.3    0.3
H    -5.0   -5.9   -5.6
H     5.6   -6.5   -4.3
I    -2.6    5.7    7.2
C     4.8    7.3   -4.0
H    -5.0    6.0   -5.6
I     2.4    2.2   -9.1
I    -2.5    2.3   -9.1
H    -3.5   -8.1    4.0
I    -5.1   -8.3    0.3
C    -5.1    7.3   -4.0
I     4.8   -2.2    8.2
H     3.9    7.9   -4.3
H     8.1    3.8    4.0
I     2.3   -6.2    7.2
H    -8.4    0.6    5.0
H    -5.9   -6.5   -4.3
P    -0.1    9.8    0.2
I    -2.6   -6.1    7.2
H    -4.2    7.9   -4.3
I    -5.1   -2.2    8.2
P     9.7   -2.1    0.2
H    -8.4    4.2    3.2
I     9.7    0.2   -2.1
H    -8.4   -1.8    5.0
I    -0.1   -5.7   -8.1
H    -7.5   -1.2    6.4
I     7.3   -2.3   -6.5
H     7.2    5.0    4.8
I     4.8    8.3    3.0
H    -6.7    6.6    3.5
P     2.3   -9.8   -1.1
C     7.2   -6.6    2.7
I    -5.1    8.3    3.0
P    -2.6   -9.8   -1.0
I    -0.1    6.1   -8.1
P   -10.0   -2.1    0.2
I   -10.0    0.2   -2.1
I     2.4    2.3    9.7
P     2.3   -3.9   -9.2
I    -2.6    2.3    9.7
I    -7.6   -2.2   -6.6
N    -7.5   -5.9    3.7
P    -2.6   -3.8   -9.2
N    -7.5    6.0    3.7
P     4.8    3.8    8.4
I     9.7    3.7    0.3
H    -7.5   -6.9    1.9
H     8.1    5.9    2.7
H     7.2   -7.3    1.8
H     8.8    1.7   -5.3
H     8.1   -6.0    2.7
H     8.8   -5.0   -2.6
H    -8.4   -5.3    3.5
P    -5.1    3.8    8.4
P     2.3   -3.8    9.6
H     8.1   -1.0    6.7
H    -9.3    0.9   -5.0
H     5.7    7.9   -4.3
I   -10.0    3.7    0.3
P    -2.6   -3.9    9.6
H    -7.5    5.9    4.8
H    -6.6   -7.7    3.2
I     9.7   -3.6    2.9
H    -6.0    7.9   -4.3
H    -7.5   -6.0    4.8
C    -7.5   -7.2    2.9
I    -0.1   -2.3  -10.6
P     4.8    9.8    0.2
P    -5.0    9.8    0.2
I   -10.0   -3.6    2.9
H    -9.2   -5.4   -2.6
I     7.3    8.2   -1.2
H    -2.7    9.4    5.1
I     4.8   -5.8   -8.1
H     6.4   -8.1    4.0
H     7.2   -6.9    4.8
P    -0.1    3.8  -10.4
N     7.2   -7.5    3.9
H     8.8   -4.7   -5.0
H     9.0   -0.4   -6.5
I    -0.3   -9.6    5.6
H    -9.7   -3.6   -4.2
I    -5.0   -5.8   -8.1
H    -8.4    6.6    3.5
I     4.8    6.1   -8.1
I    -7.5    8.2   -1.2
I    -5.0    6.1   -8.1
H     1.4   10.0    5.0
I     9.6    2.3    5.6
H     9.4    5.5   -3.4
H    10.0   -3.6   -4.2
C     9.8    1.4   -5.8
H     0.4   -9.6   -6.2
H    -9.4    2.3   -6.2
N     9.6   -5.4   -3.2
H     8.8    6.9   -2.6
H    -0.2    1.3   11.5
C    -9.9    1.4   -5.8
I     7.3   -8.2   -3.7
H    10.4    0.9   -5.0
H    -9.2    6.5   -2.6
H    -1.0  -10.2   -5.3
H    -9.1   -5.0   -5.0
H    -1.7   10.6    4.3
P    -0.1   -8.1    8.4
C     9.7   -4.6   -4.5
H     3.2   10.1    5.0
I     7.2    5.7    7.2
N     9.5    0.4   -6.9
I    -7.5   -8.2   -3.8
I   -10.1    2.3    5.6
H    -9.3    0.1   -7.3
H     9.0    0.8   -7.6
C    -9.9   -4.6   -4.5
C    -2.6   10.5    4.9
H     9.4   -6.4   -3.4
I     4.8   -2.3  -10.6
H     4.0    0.9   11.1
H    -8.4   -7.7    3.2
I     7.3    2.3   -9.1
N   -10.1   -5.4   -3.2
I    -2.6    9.6   -6.5
I    -0.2  -11.7   -2.1
I    -7.5    5.7    7.2
I     7.2   -6.1    7.2
I     2.3    9.7   -6.6
I    -5.0   -2.3  -10.6
C    -0.1  -10.5   -5.8
I    -7.5    2.2   -9.1
N     9.6    6.5   -3.2
I     2.3   11.7    1.3
H    10.5   -5.4   -2.6
P     4.8    3.8  -10.4
C     2.3   10.6    5.3
I    -2.6   11.7    1.3
I     4.8   -9.6    5.6
H     0.5  -11.0   -5.0
H     8.0   -8.1    4.0
I    -0.2   -5.8   10.7
P    -5.0    3.8  -10.4
I    -7.6   -6.2    7.2
H    -3.5   10.8    4.3
H   -10.3    5.5   -3.4
I    -5.0   -9.6    5.6
H     1.6   -0.8  -12.1
H    10.3    2.3   -6.2
H     3.9  -10.0   -5.9
P     7.2   -9.8   -1.0
H   -10.9    1.7   -5.3
I    12.2   -0.1    1.3
H   -10.9   -5.0   -2.6
N   -10.2    0.4   -6.9
I     7.2    2.3    9.7
I    -0.1   12.1   -2.1
I    -0.2    6.1   10.7
H    -4.2  -10.0   -5.9
H    -4.4    0.1   11.5
I     2.3  -12.0    1.3
P     7.3   -3.8   -9.2
H   -11.5   -1.3    4.3
P    12.2    2.1   -1.1
P    -7.5   -9.8   -1.1
N   -10.1    6.5   -3.2
I    -2.6  -12.1    1.3
H    11.3    0.6    5.0
P     2.4    8.0   -9.2
H    11.3    4.2    3.2
H     1.5  -11.3    5.0
H     8.8    7.2   -5.0
I    -7.5    2.3    9.7
H    -9.1    6.9   -5.0
H    11.3   -1.8    5.0
P    -7.5   -3.9   -9.2
P    -2.5    8.1   -9.2
H   -10.7   -0.4   -6.5
I   -12.5   -0.2    1.3
H     3.2   -1.0  -12.1
P     4.8   -8.1    8.4
P     7.2   -3.9    9.6
I    -0.2    9.6    8.2
H    10.5    6.5   -2.6
H    -5.9    0.9   11.1
H   -10.3   -6.4   -3.4
C    -0.2    1.4   12.5
H    -2.6   -1.2  -12.3
I    -2.7   -2.2   12.2
P   -12.4    2.1   -1.0
I     2.3   -2.3   12.2
P    -5.1   -8.1    8.4
H     2.3   11.9    3.7
H     2.3  -11.9    3.7
H     2.3   10.7    6.4
H    10.4    0.1   -7.3
I    12.1   -3.7   -1.2
H     5.5    0.1   11.5
I     9.7   -8.2    0.3
H    12.2   -0.0    3.7
P     2.3    8.1    9.6
H    10.6   -5.0   -5.0
N     4.6    0.4   11.9
H     3.1  -11.3    5.0
P    -7.5   -3.8    9.6
P    -2.6    8.0    9.6
H     0.6   -0.5   12.8
H   -11.6    3.8    4.0
H   -10.9   -4.7   -5.0
I     4.8  -11.7   -2.2
H    -1.0   -0.5   12.8
H     7.1    9.4    5.1
I     9.7   -2.3    8.2
H     5.7  -10.0   -5.9
H     4.0   -0.4   12.2
N     2.4   -0.6  -12.6
I   -10.0   -8.2    0.3
H    -1.7   10.9    6.7
C     9.8    7.3   -4.5
I     4.8   -5.7   10.6
H    11.3   -5.3    3.5
N     2.3  -11.9    4.7
I    -5.1  -11.7   -2.2
I   -12.4   -3.7   -1.2
N    -5.3    0.4   11.9
H    -6.0  -10.0   -5.9
H    -6.6   10.1    5.0
N     2.3   11.9    4.7
N    12.2    0.0    4.7
