         400
 sphere cut out from bulk 
I    -1.7    0.0   -0.8
P    -0.8   -2.6    0.5
H     3.0    0.3    1.3
H     1.6   -0.3   -2.9
I     2.0   -2.7   -0.9
H     2.5    1.2   -2.5
C     2.5    0.3   -3.1
H     3.9   -1.2    0.9
C     3.9   -0.3    1.5
I     0.9   -2.6    3.2
P    -2.7    2.7   -2.0
H     3.4   -0.3   -2.9
H     3.0   -1.2    3.2
N     3.8   -0.7    3.0
H     4.8    0.3    1.4
I    -3.2   -2.9    2.6
I    -0.2    2.9   -4.2
I     4.3    2.7   -0.6
H     1.7    1.3   -4.7
H    -5.0    0.3    1.4
N     2.5    0.7   -4.5
H     3.8    0.2    3.6
H     2.1    4.6    1.9
H     1.9   -4.3   -2.8
I    -1.5   -5.3   -0.8
H     2.5   -0.2   -5.1
H     3.3   -4.6    1.2
I    -1.9    5.4   -0.8
H     4.7   -1.2    3.2
H     3.4    1.2   -4.7
H    -5.9   -1.2    0.9
C    -5.9   -0.3    1.5
H    -5.1   -1.2    3.2
I    -5.5    2.7   -0.6
H     3.1    4.6   -2.8
P    -1.3   -2.8    5.4
H     4.4    4.3    1.3
H     3.1   -4.7    3.0
I     3.8    2.4    4.5
H     1.0    5.1   -3.8
N     2.1   -4.9   -3.7
C     2.9    5.5    2.0
H     2.1   -4.2   -4.5
C     3.3   -5.3    2.0
H     4.3    4.2    2.9
N    -6.0   -0.7    3.0
I    -2.7   -0.1    6.2
N     4.2    4.9    2.1
H     2.8    6.1    1.2
H     2.6   -6.1    1.9
H     1.4   -5.6   -3.8
I    -4.3    2.6   -4.8
H    -6.0    0.2    3.6
H    -6.8    0.3    1.3
H    -5.4    4.3    1.3
I     2.5   -2.4   -6.1
H    -6.4   -0.3   -2.9
C     3.1    5.3   -3.6
H    -4.4   -5.1    2.3
N     1.7    5.9   -3.7
H     4.2   -4.6   -3.5
H     1.5    6.4   -2.8
H     2.6    6.0    3.0
H     3.3    4.7   -4.5
C     3.5   -5.4   -3.6
H    -5.5    4.2    2.9
H     3.5   -6.1   -2.8
I     6.6   -2.9    2.6
H    -6.8   -1.2    3.2
N    -5.6    4.9    2.1
I     5.5    2.6   -4.8
H     5.4   -5.1    2.3
N     4.7   -5.8    2.1
H    -4.9    5.6    2.3
I    -0.7    0.1   -7.8
P    -2.1    2.8   -7.0
H     4.9    5.6    2.3
H    -7.3    1.2   -2.5
P     7.1    2.7   -2.0
I    -6.0    2.4    4.5
C    -7.3    0.3   -3.1
H     3.8    6.1   -3.5
H    -5.6   -4.6   -3.5
N    -5.1   -5.8    2.1
H    -6.5   -4.6    1.2
H    -6.4    1.2   -4.7
H     1.6    6.5   -4.5
I     8.1    0.0   -0.8
H     4.9   -6.4    1.3
H    -4.9   -6.4    1.3
P    -1.2    8.1    0.5
I     1.6    8.0   -0.9
I    -7.8   -2.7   -0.9
I     0.6   -2.7    7.9
H     3.7   -6.0   -4.5
P    -4.1    2.5    7.0
H     4.7   -6.5    2.9
H    -6.7    4.6   -2.8
P    -2.2   -8.1   -2.0
N    -7.3    0.7   -4.5
C    -6.5   -5.3    2.0
I    -2.9    5.2    6.2
I    -2.5   -5.5    6.2
H    -6.7   -4.7    3.0
H    -8.2   -0.3   -2.9
H    -5.1   -6.5    2.9
I     0.4    8.1    3.2
I     0.2   -7.8   -4.2
H     0.5   -0.4    8.9
H    -7.3   -0.2   -5.1
P     0.6   -2.5   -8.6
I    -3.7    7.9    2.6
C    -6.9    5.5    2.0
C    -6.3   -5.4   -3.6
H    -7.7    4.6    1.9
H    -6.3   -6.1   -2.8
H    -6.0    6.1   -3.5
H    -6.5    4.7   -4.5
C    -6.7    5.3   -3.6
H    -0.3    1.0    9.2
I     4.7   -8.0   -0.6
I    -0.5   -5.2   -7.8
H    -7.0    6.1    1.2
P     5.7    2.5    7.0
H     1.4    1.0    9.2
P     9.0   -2.6    0.5
H    -7.9   -4.3   -2.8
I     7.1   -0.1    6.2
N     0.5    0.4    9.5
I    -5.1   -8.0   -0.6
H    -8.1    1.3   -4.7
I     7.9    5.4   -0.8
I    -1.0    5.5   -7.8
H    -7.2   -6.1    1.9
H    -6.1   -6.0   -4.5
I    -7.3   -2.4   -6.1
H    -7.2    6.0    3.0
P    -1.8    8.0    5.4
N    -7.7   -4.9   -3.7
I    -8.9   -2.6    3.2
H    -7.7   -4.2   -4.5
I     8.3   -5.3   -0.8
I     3.5    2.3    9.2
I    -3.9   -8.1   -4.8
H     3.4    9.5    0.9
H     2.9   -9.5   -2.5
I     6.1    7.9    2.6
H     2.5    9.5    3.2
I     4.2   -8.3    4.5
I    -2.2    2.6    9.8
P     8.5   -2.8    5.4
H     0.1   -4.5    9.5
I     2.1    8.3   -6.1
H     1.3    4.5    9.5
I    -4.0    2.7   -9.4
I     6.9    5.2    6.2
N    -8.1    5.9   -3.7
P    -1.7   -7.9   -7.0
P     7.7    2.8   -7.0
H     2.1   -9.5   -4.7
H    -8.4   -5.6   -3.8
I    -1.3  -10.7   -0.8
I     9.6    2.9   -4.2
H     4.2    9.5    3.2
H     1.1   10.4   -2.9
H    -8.3    6.4   -2.8
H    -8.8    5.1   -3.8
C     0.5    0.0   10.9
P   -10.6   -2.6    0.5
I    -5.6   -8.3    4.5
I    -2.2   10.7   -0.8
H     3.4  -10.4    1.3
N     3.4   10.1    3.0
I     7.3   -5.5    6.2
H    -0.4   -0.6   11.1
C     3.4   10.5    1.5
I     5.9   -8.1   -4.8
H    -4.0    0.5  -10.4
H     2.9   10.4   -2.9
H     1.4   -0.6   11.1
I   -10.0    2.9   -4.2
P     7.6   -8.1   -2.0
I     0.1    8.0    7.9
C     2.9  -10.4   -3.1
H     3.8   -9.5   -4.7
H    -1.0    4.8   10.2
H    -3.2   -1.0  -10.8
H    -0.3    6.2    9.5
H    -8.2    6.5   -4.5
P    -3.6   -8.2    7.0
I     2.8   -2.3  -10.8
I     5.8    2.7   -9.4
I    -6.3    2.3    9.2
N     3.0  -10.0   -4.5
H     2.5   11.1    1.3
H    -4.6  -10.4    1.4
I    10.7   -2.6    3.2
H    -5.6    9.5    3.2
H     1.7   -6.2    9.5
N     0.2   -5.1   10.3
H    -6.4    9.5    0.9
I    -8.2    8.0   -0.9
H     0.5    0.9   11.5
I   -11.5    0.0   -0.8
H     2.0  -11.0   -2.9
C     1.1    5.0   10.4
C     2.0   11.0   -3.1
H     5.2  -10.4    1.4
N    -0.3    5.6   10.3
N    -4.0   -0.4  -11.0
H    11.4   -0.3   -2.9
H    -0.6   -5.9   10.2
I    -1.3   -2.6  -11.4
P     8.6    8.1    0.5
H     2.2   -4.9   10.5
P     0.2    8.2   -8.6
C     4.3  -11.0    1.5
H     4.3  -10.5    3.6
H    -4.9   -0.9  -10.8
H     2.1   10.5   -5.1
H     4.9   -0.9  -10.8
H     5.8    0.5  -10.4
H     4.3   11.0    1.4
I     9.1    0.1   -7.8
C     1.5   -5.7   10.4
H     3.4   10.9    3.6
H    -6.9   -9.5   -2.5
H     3.8  -11.0   -2.9
H    -0.1   -4.6   11.2
H     1.1    4.3   11.2
H     1.8    5.8   10.5
H    -6.0   -9.5   -4.7
I    11.8   -2.7   -0.9
H    -6.4  -10.4    1.3
N    -6.4   10.1    3.0
H     2.0   11.9   -2.5
C    -6.4   10.5    1.5
C    -5.5  -11.0    1.5
H    -7.3    9.5    3.2
H    -5.5  -10.5    3.6
H    -5.5   11.0    1.4
H     3.0  -10.9   -5.1
P     6.2   -8.2    7.0
I    -9.2   -2.7    7.9
N     2.1   11.4   -4.5
H    -3.6    4.5  -11.1
N     5.8   -0.4  -11.0
H    11.5    1.3   -4.7
N     4.3  -11.4    3.0
H    10.8    5.1   -3.8
H    -8.4    1.0    9.2
I   -11.3   -5.3   -0.8
P     8.0    8.0    5.4
H    12.3    1.2   -2.5
C    12.3    0.3   -3.1
H     4.3  -11.9    0.9
I    -3.2   10.6    6.2
I    -2.3  -10.8    6.2
P   -11.1   -2.8    5.4
I     7.6    2.6    9.8
H     6.6   -1.0  -10.8
H    -0.5    6.1   11.2
P    -9.2   -2.5   -8.6
H    -6.9   10.4   -2.9
H     3.4  -11.9    3.2
H    -4.7   -4.5  -11.0
H    11.7   -4.3   -2.8
H    -9.3   -0.4    8.9
I    -9.4    8.1    3.2
H    12.8    0.3    1.3
I    -1.8   -8.1    9.8
I    -7.7    8.3   -6.1
C    -6.9  -10.4   -3.1
H    -6.0  -11.0   -2.9
I    -3.6   -8.0   -9.4
H    -2.5   -4.8  -11.7
H     5.1   -4.5  -11.0
P   -12.5    2.7   -2.0
H     1.2   12.0   -4.7
I   -11.7    5.4   -0.8
H    11.9    4.6    1.9
N    -6.8  -10.0   -4.5
N    -5.5  -11.4    3.0
I     8.8    5.5   -7.8
H    -3.1    0.6  -12.6
H     1.6   -6.4   11.2
I    -7.0   -2.3  -10.8
P    -4.6    2.4   11.9
I    -9.6   -7.8   -4.2
H    -3.1   -6.2  -11.1
I     4.0   -8.4    9.2
C    -4.0    0.0  -12.5
H    -7.7   -9.5   -4.7
I   -10.5    0.1   -7.8
H    11.2   -5.6   -3.8
H    -5.5  -11.9    0.9
I    -0.3  -10.6   -7.8
N    12.3    0.7   -4.5
H    -6.4   10.9    3.6
I     9.3   -5.2   -7.8
H     2.9   11.9   -4.7
I     7.6   10.7   -0.8
H    12.8   -1.2    3.2
H    -4.7  -11.9    3.2
P     5.2    2.4   11.9
N    -9.3    0.4    9.5
H    11.3    6.4   -2.8
H    -7.3   11.1    1.3
H     9.5    1.0    9.2
I    10.4   -2.7    7.9
P     8.1   -7.9   -7.0
H    12.3   -0.2   -5.1
P    -0.3  -13.3    0.5
I    10.0   -7.8   -4.2
H     5.1  -11.9    3.2
I     0.1   -2.9   13.1
H    11.9   -4.2   -4.5
N    11.9   -4.9   -3.7
N    11.5    5.9   -3.7
I    -1.2   10.9   -7.8
H     0.1   -9.7    9.2
N    -3.6    5.2  -11.9
H    -2.9    5.9  -11.7
H     6.2    4.5  -11.1
I    10.2    8.1    3.2
N    -3.2   -5.6  -11.9
H    13.2   -0.3   -2.9
H    -8.5    4.5    9.5
H     4.6    6.3  -11.0
H     0.1   10.3    8.9
H     1.9   -9.7    9.2
I   -13.0   -2.9    2.6
H    -4.9    0.6  -12.7
H     4.9    0.6  -12.7
H    10.3   -0.4    8.9
I     2.5  -13.4   -0.9
H     4.1    4.9  -12.1
P   -11.0    8.1    0.5
H    -4.0   -0.9  -13.1
H    -5.2    6.3  -11.0
I     8.5  -10.7   -0.8
P    10.4   -2.5   -8.6
C    -4.5   -5.0  -11.9
I    -3.7   -0.3   13.2
H   -10.1    1.0    9.2
I     1.3  -13.3    3.2
C    13.7   -0.3    1.5
C     5.8    0.0  -12.5
H    13.7   -1.2    0.9
I    -5.8   -8.4    9.2
P     1.2   -2.4  -13.5
I     2.3    2.4   13.4
H    -7.8  -11.0   -2.9
C    -7.8   11.0   -3.1
H    -7.6   -4.9   10.5
H    -6.8  -10.9   -5.1
I     6.2   -8.0   -9.4
H    -8.7   10.4   -2.9
P    -3.1   13.4   -2.0
I     2.4    8.4  -10.8
H    13.1   -4.6    1.2
H    -6.4  -11.9    3.2
H    -8.1   -6.2    9.5
H    11.4    6.5   -4.5
H    12.4   -6.1    1.9
C    12.7    5.5    2.0
I   -10.3   -5.2   -7.8
H    -8.4   -0.6   11.1
H    -3.4    4.6  -12.7
H    12.9    4.6   -2.8
I     6.6   10.6    6.2
N    13.6   -0.7    3.0
I   -12.5   -0.1    6.2
I     3.9   13.4   -0.6
C     5.3   -5.0  -11.9
I    11.4    8.0   -0.9
I    12.3   -2.4   -6.1
N     1.0  -10.3    9.5
N    10.3    0.4    9.5
H    -7.7   10.5   -5.1
H    12.9   -4.7    3.0
H    13.2    1.2   -4.7
H    12.6    6.1    1.2
I    -2.8  -13.6    2.6
P   -11.9    2.8   -7.0
C     4.8    5.7  -11.9
H    13.6    0.2    3.6
I    -1.7    8.1  -11.4
H    12.4    6.0    3.0
C    -5.0    5.7  -11.9
H     4.6   -5.8  -12.1
H    -5.7    4.9  -12.1
I    -0.7   13.6   -4.2
C    13.1   -5.3    2.0
H    -4.6   -4.3  -12.8
H    -9.7   -4.5    9.5
H     1.0  -11.2    8.9
H     8.8    4.8   10.2
I     3.4   13.1    4.5
C    -9.3    0.0   10.9
