         400
 sphere cut out from bulk 
P    -0.5    0.1   -1.5
I     2.1   -0.1    0.5
I    -1.7   -1.9    0.8
P    -0.1    0.2    2.7
I    -1.3    2.4    0.6
I     0.3   -2.3   -3.4
H     3.8   -1.8   -0.2
I     0.9    1.8   -3.8
I    -3.0    0.3   -3.4
H    -0.2    4.6   -0.2
H    -1.1   -3.9    2.3
H    -4.1   -2.3   -0.3
H     3.3   -2.9   -2.2
H    -3.2    3.0    2.3
H     4.1    2.0    2.2
N     4.5   -2.5   -0.6
I     1.0   -2.0    4.7
H     1.1    4.6   -2.3
I     1.3    2.1    4.7
H     4.5   -1.6   -2.5
C     4.3   -2.6   -2.0
H    -0.1   -4.0    3.7
H     4.2   -3.4   -0.1
I    -2.5    0.3    4.8
N     0.2    5.5   -0.6
N    -0.7   -4.6    3.0
H     1.0   -5.2    1.9
N    -5.1   -2.5   -0.6
H    -3.7    2.3    3.7
P    -0.5   -0.2   -5.7
H     1.1    5.6   -0.1
C     4.3    3.0    2.6
C     0.4    5.4   -2.1
N    -3.9    3.1    3.1
H    -0.6    5.2   -2.5
H     4.1    3.7    1.9
H    -5.1   -1.6   -2.5
H     3.6    3.1    3.5
H     5.5   -2.3   -0.3
H    -5.7   -1.8   -0.2
H     3.2    2.4   -4.6
C     0.1   -5.7    2.4
H    -4.6   -3.3   -2.4
H    -5.5    2.0    2.2
C    -5.3   -2.6   -2.0
H    -0.4    6.2   -0.3
H     0.2   -4.6   -4.3
H    -1.5   -4.9    3.6
H    -5.3   -3.4   -0.1
H    -0.5   -6.2    1.7
H     5.0   -3.3   -2.4
H    -3.7    3.9    3.6
C    -5.3    3.0    2.6
H    -4.7    2.0   -4.3
H     4.9    2.0   -4.3
H     0.8    6.4   -2.4
N     4.2    2.7   -4.8
H    -5.5    3.7    1.9
I     3.8   -5.7    0.6
P    -0.1    0.1    7.0
H     0.4   -6.3    3.2
H     4.4    3.6   -4.4
N     5.7    3.1    3.1
I     3.4    6.3    0.7
H    -6.3   -2.9   -2.2
N     0.3   -5.5   -4.8
H     5.9    2.3    3.7
H     3.7   -2.7    5.8
H     6.3    3.0    2.3
I     6.6    0.3   -3.4
H    -4.8   -1.4    5.6
I    -7.5   -0.1    0.5
H     1.3   -5.8   -4.6
H     4.8   -1.4    5.6
H    -0.4   -6.2   -4.3
H     0.9    4.8    5.7
H    -5.9    3.1    3.5
N    -5.3    2.7   -4.8
H    -4.1   -3.1    5.7
H    -5.2    3.6   -4.4
H    -0.7    5.6    5.5
H     5.8    3.9    3.6
C     4.7   -2.4    6.0
I     3.6   -6.0   -3.8
H    -4.0    2.9   -6.4
I     7.8   -1.9    0.8
H     4.3    1.7   -6.7
I    -5.7   -5.7    0.6
C    -4.9   -2.4    6.0
H    -1.0   -5.0   -6.3
C     4.5    2.7   -6.2
I    -2.2    7.8    0.6
I     4.2    6.0   -3.7
H    -6.3    2.4   -4.6
C     0.0    5.3    6.2
I     0.8   -2.0   -7.9
H     0.7   -4.7   -6.7
C    -0.0   -5.4   -6.2
I    -3.4   -5.9    4.7
I    -2.5    0.6   -8.0
H    -0.4    4.6    7.0
H     5.4   -3.1    5.7
C    -5.0    2.7   -6.2
I    -3.5    6.1    4.7
H     3.9    3.5   -6.7
I     7.0    0.3    4.8
I     8.3    2.4    0.6
H    -5.3    1.7   -6.7
I    -2.4   -8.3    0.6
H    -5.9   -2.7    5.8
I    -6.1    6.3    0.7
I    -5.4    6.0   -3.7
H    -3.8   -2.1    7.8
H     5.6    2.9   -6.4
I    -2.2   -7.8   -3.9
H     4.2   -1.5    7.9
I    -1.5   -2.1    8.8
N    -4.8   -2.3    7.5
N     4.8   -2.3    7.5
P     9.1    0.1   -1.5
H     0.0   -6.4   -6.7
I    -6.0   -6.0   -3.8
I     2.4   -0.1    9.0
I    -0.8    2.5    8.9
I     2.3   -7.7    4.8
H    -5.6    3.5   -6.7
I    -1.9    8.4   -3.9
P    -4.7   -8.0   -1.5
I     1.8    4.2   -8.2
P     4.8   -8.0   -1.5
P    -4.5    8.2   -1.5
N     0.5    6.5    6.9
H     0.9    7.2    6.2
I    -3.1   -4.0   -8.1
P     4.7   -7.9    2.8
I    -8.6    1.8   -3.8
H     8.5   -3.9    2.3
P    -4.9   -7.9    2.8
H     4.6   -3.2    7.9
H    -5.4   -1.5    7.9
I     6.1   -5.9    4.7
P     5.1    8.2   -1.5
I    -8.3    2.1    4.7
I     6.1    6.1    4.7
P     9.5    0.2    2.7
P    -4.6    8.3    2.8
H    -5.0   -3.2    7.9
H     5.8   -2.1    7.8
H     1.3    6.3    7.6
H    -8.5    4.6   -2.3
H    -0.7   -9.9   -0.3
H     2.5   -3.5   -9.0
I    -8.6   -2.0    4.7
P     4.9    8.3    2.8
P    -9.7    0.2    2.7
H     0.5   -9.8   -2.4
I     2.6    8.5    4.8
H     8.1   -4.9    3.6
H    -0.3   10.0    1.7
P   -10.0    0.1   -1.5
H    -8.4    5.6   -0.1
I    -9.3   -2.3   -3.4
P    -1.7   -1.8   -9.9
H    -0.2    7.0    7.5
H    -8.6   -5.2    1.9
H    -0.3    4.3   -9.3
I     3.2   -9.8    0.7
H     0.7    9.8    3.2
N     8.9   -4.6    3.0
H     9.4    4.6   -0.2
H    -2.0    2.7   -9.9
H     0.9  -10.5   -0.1
I    -3.6    6.1   -8.0
H     9.0    5.2   -2.5
P     9.0   -0.2   -5.7
I     9.9   -2.3   -3.4
I     7.1    0.6   -8.0
N    -0.0  -10.7   -0.6
H     3.0   -5.1   -9.0
H    -9.7    4.6   -0.2
C     0.3   10.5    2.4
N     3.2   -4.2   -9.4
H     4.2   -4.0   -9.1
I     7.4    7.8    0.6
N    -9.3    5.5   -0.6
H     2.3   -2.8   10.2
H    -1.8    5.1   -9.4
C    -9.2    5.4   -2.1
H     9.4   -4.0    3.7
H    -0.1   10.0   -4.3
C     0.1  -10.7   -2.1
P    -4.4    8.1   -5.9
H     0.7   -9.0    6.2
I     7.1   -8.3    0.6
P    -4.7   -8.1   -5.9
H     0.6   -3.1   10.6
N    -1.1    4.6  -10.0
H     9.1    6.2   -0.3
H     9.0   -6.2    1.7
H    -9.7   -4.0    3.7
P     4.9   -8.1   -5.9
I     6.4   -4.0   -8.1
H    -8.3   -5.8   -4.6
I   -10.8    2.4    0.6
H    -8.8    6.4   -2.4
I     2.6   -7.4   -7.9
H     1.2   10.9    1.9
I     3.4    6.2    8.7
N     9.8    5.5   -0.6
I     4.1   10.5    0.6
P     5.1    8.1   -5.9
H    -0.9  -10.9   -2.5
H    -9.4   -4.6   -4.3
C    -9.5   -5.7    2.4
H     1.7   -4.5   10.2
C    -1.6    3.4  -10.7
I     4.2   -5.4    9.0
I    10.5    1.8   -3.8
H    -5.4   -4.0   -9.1
C     1.6   -3.5   10.7
P     1.1    1.8   11.2
I     7.4   -7.8   -3.9
C     9.7   -5.7    2.4
H     1.5   10.4   -4.6
I     3.9   10.1   -3.8
I    -7.1   -0.1    9.0
H    -8.7    4.8    5.7
I   -11.3   -1.9    0.8
H    -3.7    3.7   10.3
C     9.9    5.4   -2.1
I     3.9  -10.2   -3.7
H    -0.7    2.9  -11.2
H    -9.1   -6.3    3.2
H   -10.7   -3.9    2.3
H     9.8   -4.6   -4.3
P   -10.1   -0.2   -5.7
I    -7.3   -7.7    4.8
H    -0.4  -11.6   -0.2
P     4.8   -7.9    7.0
P    -4.8   -7.9    7.0
N   -10.3   -4.6    3.0
I    11.7   -0.1    0.5
H   -10.2    5.2   -2.5
N     0.5   10.7   -4.8
I     6.0    6.1   -8.0
P    -4.5    8.2    7.0
H     8.5   -5.0   -6.3
I    -3.7  -10.1    4.7
I    10.6   -2.0    4.7
I    -6.4   -9.8    0.7
I    -5.3   -5.4    9.0
I    -3.2   10.3    4.7
P     9.5    0.1    7.0
H   -10.0    6.2   -0.3
N    -9.3   -5.5   -4.8
H     0.8  -11.5   -2.3
H     8.8    5.6    5.5
I    -5.5   10.5    0.6
H     0.3    9.8   -6.7
H    10.6    4.6   -2.3
H    -2.4    4.8   10.6
H    -1.3   11.2    3.6
H    -0.5   -9.2    7.5
N     0.3   -9.7    6.9
H     9.2   -6.2   -4.3
H    10.5   -5.2    1.9
H    -0.7    5.3  -10.7
P     5.0    8.2    7.0
H    -7.0   -3.5   -9.0
P    -9.7    0.1    7.0
I     7.6    8.4   -3.9
I    -8.8   -2.0   -7.9
H    -1.0  -10.6    5.5
H   -10.1   -6.2    1.7
N    -0.5   11.6    3.0
I    10.8    2.1    4.7
I    -7.0    8.5    4.8
H    -8.9   -4.7   -6.7
I    -7.7    4.2   -8.2
I     8.0   -2.1    8.8
C     3.0   -4.3  -10.9
H    10.7    5.6   -0.1
I    -2.0    8.0    8.9
N    -6.4   -4.2   -9.4
C    -3.4    4.6   10.7
I    -0.4    0.2  -12.2
H    -2.4    3.6  -11.4
I     2.9    8.8   -7.9
H     3.2   -3.3  -11.3
I    -5.7  -10.2   -3.7
P     3.4    6.3   -9.9
I    -5.7   10.1   -3.8
H     2.0   -4.7  -11.1
N     9.8   -5.5   -4.8
H    10.0   -6.3    3.2
H    -4.0    5.4   10.2
H    -6.6   -5.1   -9.0
I    -6.1    6.2    8.7
I    -2.2   -8.2    8.9
H     5.9    3.7   10.3
H    10.3    6.4   -2.4
H     0.4   11.6   -4.3
H     9.2    4.6    7.0
C     0.2   10.8   -6.2
H    -9.9   -6.2   -4.3
H    -0.8   12.3    2.3
H     1.0   -9.9    7.6
C    -0.2  -10.9    6.2
I     5.8  -10.1    4.7
C    -9.5    5.3    6.2
C     9.6    5.3    6.2
C     9.5   -5.4   -6.2
H   -11.1   -4.9    3.6
C    -9.6   -5.4   -6.2
H     0.1   12.2    3.7
H     0.6  -11.3    5.7
I     8.7    2.5    8.9
H     7.5    2.7   -9.9
P     7.8   -1.8   -9.9
N     1.9   -3.6   12.1
I    -0.6   -4.0  -12.2
H    -7.2   -2.8   10.2
H    10.4    4.8    5.7
H     5.6    5.4   10.2
I    -6.9   -7.4   -7.9
H    -8.3    6.3    7.6
H    -8.6    7.2    6.2
H    -0.8   11.2   -6.3
I    -4.1   -1.6  -12.1
H     3.8   -5.0  -11.3
H   -10.3    5.6    5.5
P    -3.1   -6.1   11.0
H     1.8   -2.6   12.6
I     6.4   10.3    4.7
I   -12.1    0.3    4.8
I   -12.6    0.3   -3.4
H   -10.0    4.6    7.0
H    10.8   -5.8   -4.6
N    -9.1    6.5    6.9
H    10.3   -4.7   -6.7
H     3.8  -12.4    1.9
C     6.1    4.6   10.7
H     7.7    5.1   -9.4
I    10.4   -2.0   -7.9
H     2.9   -3.8   12.3
P    -6.2    6.3   -9.9
H    -9.5   -6.4   -6.7
H     1.0   11.4   -6.7
H   -10.6   -5.0   -6.3
H   -12.8    3.0    2.3
H    12.8   -2.9   -2.2
H     9.6   -6.4   -6.7
H     8.9   -9.9   -0.3
H     1.2   -4.2   12.6
H    -4.0  -12.2    3.6
I     5.4   -1.6  -12.1
H    -6.4   -3.3  -11.3
C    -6.5   -4.3  -10.9
I    -3.8  -10.1   -8.0
N    -3.7    4.6   12.2
H    -0.7  -11.5    7.0
H    13.4   -1.8   -0.2
H     4.5   12.8   -0.1
H    -9.1   -9.8   -2.4
H    -5.8   -5.0  -11.3
H    -3.1    3.9   12.7
I     1.9   -0.3   13.5
I     4.5    4.2  -12.2
I     3.2  -10.0    8.7
I    -6.7    8.8   -7.9
H     2.0    1.1  -13.4
H    -8.7  -10.5   -0.1
H    -8.9    9.8    3.2
H     7.2    4.8   10.6
H    -7.9   -4.5   10.2
H     9.3   10.0    1.7
I    -1.4    2.3   13.5
C     8.0    3.4  -10.7
H    -5.1   12.8   -0.1
C    -8.0   -3.5   10.7
I     0.9    6.6  -12.1
H    -4.3   12.9   -2.4
H    -3.5  -13.2    2.3
H    12.8    2.4   -4.6
H    -5.7  -12.4    1.9
H     9.2    4.3   -9.3
I    -5.1    4.2  -12.2
H     9.3    7.0    7.5
N    10.1    6.5    6.9
H     4.3    0.3  -13.2
H   -13.7   -2.3   -0.3
I    -1.5  -13.8    0.6
N     8.5    4.6  -10.0
I     2.5    3.8   13.1
H    -8.4   10.9    1.9
H    -4.7    4.3   12.3
H     5.6  -12.2    3.6
H     4.1  -12.6   -4.4
H    -8.1   10.4   -4.6
H   -13.2    2.3    3.7
