         400
 sphere cut out from bulk 
H    -1.1   -0.2    1.1
H     0.2   -0.4    2.1
N    -0.8   -0.1    2.1
I     1.4    2.0   -0.6
H    -0.9    0.9    2.3
I     0.4   -2.6   -0.7
P     3.1   -0.8   -0.7
I    -3.1    1.0   -0.6
C    -1.7   -0.9    3.0
H    -2.1   -0.5   -3.0
H    -1.6   -1.9    2.7
I     2.8   -1.0    2.5
H    -1.2   -2.0   -3.2
H    -2.7   -0.6    2.9
P    -1.4    3.7   -0.7
C    -1.8   -1.3   -3.7
H    -1.3   -0.7    4.0
H    -0.1   -0.2   -4.4
I    -1.2    3.6    2.5
H     2.4    3.0   -2.7
H     2.4    4.0    1.1
H     2.5   -3.6    2.1
N    -0.9   -0.6   -4.8
I     2.9   -0.5   -3.9
H     3.2    2.5    2.8
H     1.4    4.1    2.4
H    -2.6   -1.7   -4.1
H     2.7    2.1   -4.1
N     2.4    4.3    2.1
N     2.5    3.1   -3.7
I    -4.1   -3.5   -0.9
H     1.5    3.3   -4.0
P    -1.5   -5.2   -0.7
H    -1.5    0.1   -5.3
I    -1.1    3.7   -3.9
H     2.4   -4.9    1.1
H     1.4   -4.8    2.4
N     2.3   -4.6    2.1
H    -0.6   -1.3   -5.4
C     3.4    3.6    2.8
I     5.8    1.0   -0.6
P    -5.8   -0.8   -0.7
I     4.8   -3.5   -0.9
I     0.5    1.0    5.9
I    -1.3   -5.4    2.5
H     3.2   -3.9   -3.8
H     2.5    5.4    2.1
H     4.4    3.8    2.4
H    -4.5    3.8    2.4
I     0.4    6.4   -0.7
H     3.4    3.9    3.9
P     3.0   -0.9    5.7
I    -6.1   -1.0    2.5
I    -1.1   -5.2   -3.9
H    -5.7    2.5    2.8
C     3.5    4.1   -4.2
H     6.2   -0.6    2.9
I    -4.1    5.5   -0.9
P    -1.4    3.6    5.8
C     3.4   -5.3    2.8
H     2.4   -5.9   -2.7
I     1.1   -3.5    5.9
H    -4.4    3.8   -3.8
H     4.5    3.8   -3.8
H     1.5   -5.6   -4.0
H     3.2    5.1   -3.8
I    -4.0    1.6    5.7
I     1.3   -7.0   -0.6
H     4.4   -5.1    2.4
C    -5.5    3.6    2.8
H     3.3   -5.0    3.9
I    -6.0   -0.5   -3.9
I    -3.4   -2.8    5.7
H    -4.5   -5.1    2.4
C     3.4   -4.9   -4.2
N     2.4   -5.9   -3.7
I     4.8    5.5   -0.9
H     6.8   -0.5   -3.0
H     3.5    4.1   -5.3
I     1.3    1.8   -7.3
H    -6.4    3.0   -2.7
H    -6.4   -3.6    2.1
H    -1.5    7.0    2.7
H     3.2   -6.4    2.8
H     6.2   -1.7   -4.1
H    -1.1    6.9   -3.2
I     4.9    1.6    5.7
H    -6.5    4.0    1.1
H    -6.2    2.1   -4.1
I     0.6   -2.6   -7.2
H    -1.2   -0.6    7.7
I    -3.1    1.2   -7.0
I    -7.5    2.0   -0.6
H     4.4   -5.2   -3.8
H    -5.5    3.9    3.9
H     7.8   -0.2    1.1
H    -4.5   -5.2   -3.8
C     7.2   -0.9    3.0
H    -5.7   -3.9   -3.8
P     3.2   -0.7   -7.2
H     3.4   -4.9   -5.3
C    -5.4    4.1   -4.2
P    -1.4   -5.4    5.8
H     7.3   -1.9    2.7
N    -6.4    3.1   -3.7
N    -6.5    4.3    2.1
C     7.1   -1.3   -3.7
I     1.2    5.4    5.9
C    -5.5   -5.3    2.8
P    -1.2    3.8   -7.2
H    -6.5   -4.9    1.1
P    -5.9   -0.9    5.7
N    -6.6   -4.6    2.1
N     8.1   -0.1    2.1
H     2.6   -6.8   -4.1
P     7.5    3.7   -0.7
H     8.0    0.9    2.3
H    -0.9   -8.0    2.3
I     5.5   -2.8    5.7
C    -5.5   -4.9   -4.2
H    -5.6   -5.0    3.9
H    -5.7    5.1   -3.8
H    -6.4    5.4    2.1
I    -3.2   -8.0   -0.6
H     7.6   -0.7    4.0
H     7.7   -2.0   -3.2
H    -5.4    4.1   -5.3
I    -3.8   -3.2   -7.1
C    -1.7    7.7   -3.7
H    -2.6    7.2   -4.1
C    -1.6    8.1    3.0
P     3.1    8.2   -0.7
I     2.9    7.9    2.5
I     7.7    3.6    2.5
C    -1.2   -0.6    8.7
H     0.2    8.6    2.1
H     3.7    2.9    7.5
H    -7.5    4.1    2.4
H    -1.1    8.8    1.1
I    -8.5   -2.6   -0.7
H    -8.7   -0.4    2.1
P    -1.3   -5.2   -7.2
I    -3.3    6.1    5.7
H    -5.7   -6.4    2.8
H    -5.5   -4.9   -5.3
H    -7.4    3.3   -4.0
H     7.4    0.1   -5.3
P     7.4   -5.2   -0.7
H    -0.9   -0.3   -9.0
N    -0.8    8.9    2.1
H    -0.2   -0.9    9.1
P    -5.7   -0.7   -7.2
H    -6.5   -5.9   -2.7
I     5.8    1.2   -7.0
H    -2.0    8.5   -3.0
H     2.8    4.3    7.6
H    -1.3    8.2    4.0
H    -7.5   -4.8    2.4
H    -2.7    8.4    2.9
H    -1.4    0.4    9.1
H    -1.2   -9.1    1.1
N     7.9   -0.6   -4.8
N    -0.9   -9.0    2.1
H     1.6    2.5    8.8
I     5.1   -3.2   -7.1
H     9.1   -0.4    2.1
H     2.7   -4.6    7.6
H    -0.6    7.6   -5.4
H    -2.0   -2.6    8.9
N    -6.5   -5.9   -3.7
I     7.8    3.7   -3.9
H    -3.1   -1.3    8.9
H     0.1   -9.3    2.1
N     3.3    3.6    8.2
I     3.2   -1.0    9.0
H    -5.2    2.9    7.5
N    -2.2   -1.6    9.2
I     9.2   -2.6   -0.7
N    -0.9    8.3   -4.8
I     0.7    6.3   -7.2
I     7.6   -5.4    2.5
I     3.0    8.4   -3.9
H    -0.1    8.8   -4.4
H     8.8   -0.2   -4.4
I     5.7   -8.0   -0.6
I    -3.7    5.7   -7.1
I     0.5   -7.9    5.9
I    -1.7    3.7    9.0
N    -9.7   -0.1    2.1
H     8.3   -1.3   -5.4
H    -9.0   -0.2   -4.4
I     5.6    6.1    5.7
P    -5.8    8.2   -0.7
C     2.5    3.0    9.3
H   -10.0   -0.2    1.1
H    -9.8    0.9    2.3
I    -4.0   -7.3    5.7
H    -0.2   -9.1   -4.4
P     7.5    3.6    5.8
H    -6.3   -6.8   -4.1
H    -2.1   -9.4   -3.0
H    -7.4   -5.6   -4.0
C    -0.9   -0.7  -10.1
I     7.8   -5.2   -3.9
H    -0.8    9.9    2.3
P     3.0   -9.7   -0.7
I     1.2   -7.1   -7.3
I    -6.0    7.9    2.5
I    -8.4    1.0    5.9
H     3.6   -6.0    7.5
H    -2.8   -9.5    2.9
N     3.3   -5.3    8.2
H     3.3    3.9   -8.9
I    -7.6   -7.0   -0.6
P     3.0    8.0    5.7
I    -7.7   -3.5    5.9
H    -1.1   -1.7  -10.2
H     4.2    4.1    8.6
C    -1.7   -9.8    3.0
I    -3.1    9.9   -0.6
H     6.3    7.2   -4.1
I    10.2    2.0   -0.6
H    -1.6   -8.9   -5.3
I     5.2    5.7   -7.1
I     4.9   -7.3    5.7
H     3.1    2.3    9.8
H     7.4    7.0    2.7
H     0.1   -0.4  -10.5
N    -5.5    3.6    8.2
I    -1.7   -5.2    9.0
H    -1.5    9.0   -5.3
H    -1.4   -9.7    4.0
H    -4.7    4.1    8.6
H    -2.2   -1.7   10.3
I     2.8   -9.9    2.5
I    -8.5    6.4   -0.7
I     2.9   -9.5   -3.9
I    -7.6    1.8   -7.3
H     4.1   -4.9    8.6
H     5.7   -1.3    8.9
H    -6.1    4.3    7.6
I    -5.7   -1.0    9.0
H   -10.1   -2.0   -3.2
N    -1.0   -9.6   -4.8
H     3.3   -5.0   -8.9
P     7.5   -5.4    5.8
H     6.2    8.4    2.9
H    -6.2   -4.6    7.6
H     7.7   -0.6    7.7
H     2.2    3.8   10.0
H     7.8    6.9   -3.2
H    -2.9   -0.1  -10.5
N    -9.8   -0.6   -4.8
H    -4.8   -4.9    8.6
I    -3.1   -7.8   -7.0
H    -5.3   -6.0    7.5
I     3.4   -0.7  -10.4
H   -10.5   -1.9    2.7
P   -10.3    3.7   -0.7
H   -10.2   -0.7    4.0
H     1.6   -6.4    8.8
C    -1.8  -10.2   -3.7
C   -10.6   -0.9    3.0
I     1.4   10.9   -0.6
I   -10.1    3.6    2.5
I    -5.9    8.4   -3.9
H    -1.8    1.1  -10.8
H    -9.5   -1.3   -5.4
N    -1.9    0.1  -10.9
H     3.1    2.7  -10.3
H     2.0    4.1  -10.1
C     3.0    3.8  -10.0
H    -1.9    6.4    8.9
I    -7.7    5.4    5.9
I     9.4    1.0    5.9
C     7.2    7.7   -3.7
I    -1.4    3.7  -10.4
P     7.6    3.8   -7.2
H    -5.6    3.9   -8.9
N    -5.6   -5.3    8.2
C     7.3    8.1    3.0
C     2.5   -5.9    9.3
I    -8.2   -2.6   -7.2
H     6.9    8.5   -3.0
I     9.3    6.4   -0.7
H     1.9   -4.8  -10.1
H    -1.6  -10.9    2.7
I   -10.0    3.7   -3.9
C   -10.7   -1.3   -3.7
P    -5.9   -9.7   -0.7
H    10.3    4.1    2.4
H   -11.0   -0.5   -3.0
H    -1.1    8.4    7.7
H     2.2   -5.2   10.0
P     3.3    8.3   -7.2
H    -1.2  -11.0   -3.2
P    -5.8    8.0    5.7
N     6.7   -1.6    9.2
H     8.0   -8.0    2.3
I     0.3  -11.5   -0.7
H     6.9   -2.6    8.9
I     5.8    9.9   -0.6
H    -5.8    2.3    9.8
H    10.3   -4.8    2.4
C     2.9   -5.2  -10.0
I     0.6   10.0    5.9
P   -10.4   -5.2   -0.7
C    -6.4    3.0    9.3
H    10.4    3.3   -4.0
H    -0.7  -10.3   -5.4
H     6.1   -9.5    2.9
H    -7.2    2.5    8.8
H   -10.4    0.1   -5.3
C     7.7   -0.6    8.7
P     7.6   -5.2   -7.2
H    -5.6   -5.0   -8.9
H     3.7   -3.3  -10.6
H    -2.7  -10.7   -4.1
I   -10.2   -5.4    2.5
I    -1.5   -5.3  -10.4
P     2.9   -9.9    5.7
H     7.8    8.8    1.1
I    -5.5   -0.7  -10.4
H     7.5    0.4    9.1
H     7.6    8.2    4.0
I    -6.0   -9.5   -3.9
I    -6.1   -9.9    2.5
H   -11.6   -0.6    2.9
I     5.7   -7.8   -7.0
I   -10.0   -5.2   -3.9
H     6.8   -9.4   -3.0
N    -2.1    7.3    9.2
H     7.7   -9.1    1.1
I    11.7   -1.0    2.5
P    12.0   -0.8   -0.7
H    -1.9   -0.2  -11.9
H    11.3    3.0   -2.7
H    11.3    4.0    1.1
H     8.0   -0.3   -9.0
I   -12.0    1.0   -0.6
H    -5.8    2.7  -10.3
H    11.4   -3.6    2.1
H     2.7   11.1   -4.1
H    -3.1    7.6    8.9
I     7.2    3.7    9.0
I     0.2    0.8   12.1
H     6.0   -0.1  -10.5
H    -0.1    8.0    9.1
C    -1.1    8.3    8.7
I    10.0   -3.5    5.9
C    -5.9    3.8  -10.0
N     8.1    8.9    2.1
H     3.1   -6.7    9.8
N    11.3    4.3    2.1
N     8.0   -9.0    2.1
H     3.3   11.5    2.8
I     9.5   -2.6   -7.2
H    -1.2   -9.5    7.7
H    -5.2   -3.3  -10.6
N    11.2   -4.6    2.1
P   -10.3    3.6    5.8
P    -5.6    8.3   -7.2
N     3.8   -4.3  -10.9
H    11.2   -4.9    1.1
H    -4.0    4.3  -10.8
N    11.4    3.1   -3.7
H     6.7   -1.7   10.3
H     3.0   -6.2  -10.3
I    10.2   -7.0   -0.6
H    -8.6    8.6    2.1
H   -11.5   -1.7   -4.1
N     3.8    4.6  -10.9
P     3.2   -9.6   -7.2
I     3.2    8.0    9.0
H    10.4   -5.6   -4.0
H    11.6    2.1   -4.1
H    -4.1   -4.6  -10.8
I    11.8   -0.5   -3.9
N     8.0    8.3   -4.8
H     2.5   12.0   -2.7
H    -1.0    7.2  -10.2
H     8.3    7.6   -5.4
H    -0.9    8.6   -9.0
C     7.2   -9.8    3.0
P     2.8   -1.0   12.2
H    -6.7    3.8   10.0
H   -10.0    6.9   -3.2
H     4.8    4.3  -10.8
H     3.8    5.6  -10.6
I     7.2   -5.2    9.0
H     8.7   -0.9    9.1
H    -1.5   -8.6    9.1
I    10.2    1.8   -7.3
I    -8.2    6.3   -7.2
I    -3.9   10.6    5.7
H   -10.1   -0.6    7.7
H     7.3   -8.9   -5.3
H    12.1    2.5    2.8
H     4.8   -4.6  -10.8
I    -3.0   10.1   -7.0
