         400
 sphere cut out from bulk 
I     1.3   -0.6   -0.6
H    -1.2    1.7    1.1
P    -1.3   -2.4   -0.7
H    -0.1    1.9    2.5
C    -1.1    2.1    2.1
I    -3.2    0.1   -0.8
H    -1.3    2.1   -2.5
H    -1.8    0.3    3.0
H     2.9   -1.7    1.1
I    -1.5   -2.3    2.5
P     3.2    2.0   -0.7
N    -2.0    1.4    3.0
H    -1.3    3.2    2.1
I     0.7    3.9   -0.6
H    -3.0    1.5    2.7
H    -1.0    0.5   -4.2
C    -1.6    2.3   -3.5
I     3.3    1.9    2.5
N     3.5   -2.3    1.7
H     0.2    1.7   -4.3
H     1.6   -2.1   -3.8
I    -1.1   -2.3   -4.0
N    -0.8    1.5   -4.4
H    -2.0    1.7    3.9
H     2.5   -2.1    3.5
H     2.0   -3.5    2.5
H     2.8   -0.9   -3.8
H    -2.6    2.1   -3.6
C     2.9   -2.9    2.8
H     3.9   -3.0    1.0
H     4.3   -1.7    2.0
I     0.6   -5.0   -0.6
N     2.5   -1.8   -4.2
H    -1.3    3.4   -3.7
I     2.9    1.8   -4.0
H    -4.6   -1.7    2.0
H     3.6   -2.9   -2.7
H    -1.0    1.7   -5.4
I     5.7    0.1   -0.8
I    -3.8   -4.4   -0.8
I     0.3    0.1    5.9
H    -5.0   -3.0    1.0
C     3.6   -2.8   -3.8
I    -3.8    4.5   -0.8
H     2.5   -1.7   -5.2
H     3.6   -3.5    3.4
N    -5.4   -2.3    1.7
P    -5.7    2.0   -0.7
H     2.1    5.4    2.5
H    -1.4   -5.8    2.1
H    -6.0   -1.7    1.1
P    -1.4   -2.6    5.7
I    -5.6    1.9    2.5
H     3.3   -3.8   -4.2
H    -4.4   -2.5   -4.2
H    -5.3   -2.9   -2.7
P    -1.2    6.5   -0.7
H     5.9    1.5    2.7
H     4.5   -2.5   -4.2
P     3.0    1.8    5.7
I     5.1   -4.4   -0.8
H    -1.4   -5.5   -3.7
I     5.1    4.5   -0.8
C    -5.3   -2.8   -3.8
I    -4.1   -0.9    5.8
H     4.0    5.9    1.0
C    -1.1   -6.8    2.1
H    -5.3   -3.5    3.4
I    -1.4    6.6    2.5
C     2.9    6.0    2.8
H    -6.1   -0.9   -3.8
C    -6.1   -2.9    2.8
H     3.6    5.4    3.4
H    -1.3   -6.8   -2.5
I     1.2   -4.4    5.8
I    -3.1    3.6    5.6
I    -6.0    1.8   -4.0
H    -0.1   -7.0    2.5
H    -1.2   -7.2    1.1
H     3.3    5.1   -4.2
I     1.3    4.5    5.8
I     1.4   -0.7   -7.3
I     4.8   -0.9    5.8
H     6.3    2.1   -3.6
H     3.7    6.1   -2.7
I    -7.6   -0.6   -0.6
C    -1.6   -6.6   -3.5
N     6.9    1.4    3.0
H    -6.4   -2.1    3.5
P     3.1   -6.9   -0.7
H     7.1    0.3    3.0
N     3.6    6.6    1.7
P    -1.4   -2.5   -7.2
H    -4.9    5.9    1.0
I    -3.1    0.2   -7.1
I    -1.0    6.7   -4.0
N    -6.4   -1.8   -4.2
H     2.9    7.2    1.1
H    -5.6   -3.8   -4.2
H     7.7    1.7    1.1
H     1.7    6.9   -3.8
H     2.5    6.8    3.5
C     3.6    6.1   -3.8
P     7.7   -2.4   -0.7
I     0.5    3.8   -7.2
H    -6.9   -3.5    2.5
P     3.2    2.0   -7.2
I     3.2   -7.1    2.5
H    -2.7   -6.8   -3.6
I     7.4   -2.3    2.5
H     7.0    1.7    3.9
H    -5.3    5.4    3.4
H     7.6    2.1   -2.5
I    -3.2   -5.3    5.6
C     7.8    2.1    2.1
N    -2.1   -7.6    3.0
P    -5.9    1.8    5.7
H    -2.1    2.6    7.7
H     0.2   -7.3   -4.3
H    -5.2    6.1   -2.7
I     1.4    8.3   -0.6
H    -2.0   -7.2    3.9
H    -6.5   -1.7   -5.2
C     7.3    2.3   -3.5
H    -3.1   -7.4    2.7
H     7.6    3.2    2.1
H    -7.3   -2.1   -3.8
I     2.9   -7.1   -4.0
P    -1.4    6.3    5.7
N     2.6    7.1   -4.2
N    -5.3    6.6    1.7
H    -5.6    5.1   -4.2
H     4.4    7.2    2.0
N    -0.8   -7.5   -4.4
H     3.3   -3.0    7.5
H    -4.5    7.2    2.0
H    -1.3    0.5    8.7
H    -4.3    6.4   -4.2
I     5.8    3.6    5.6
I     0.4   -5.2   -7.2
H    -0.0    1.8    8.7
C    -5.3    6.1   -3.8
C    -6.0    6.0    2.8
H     4.6    6.4   -4.2
H     7.9    0.5   -4.2
H    -6.8    5.4    2.5
P    -5.8   -6.9   -0.7
I     7.9   -2.3   -4.0
H     7.6    3.4   -3.7
H    -1.1   -7.3   -5.4
I    -4.0   -4.2   -7.0
I    -8.2    3.9   -0.6
I     5.9    0.2   -7.1
H     2.5    7.2   -5.2
H    -1.9   -8.6    3.0
C    -1.0    1.5    9.1
N    -2.0    2.5    8.8
I    -4.0    4.7   -7.0
H     2.8    8.1   -3.8
N     8.1    1.5   -4.4
H     8.9    1.9    2.5
P    -5.7    2.0   -7.2
I    -5.7   -7.1    2.5
H    -6.0    7.2    1.1
I    -3.2   -8.9   -0.8
H    -9.0    1.9    2.5
H    -1.0   -8.5   -4.2
I    -1.7   -2.8    9.0
I     4.9   -4.2   -7.0
I    -3.1    9.0   -0.8
P     2.9   -7.1    5.7
H    -0.7    1.1   -9.5
I     5.7   -5.3    5.6
I     1.3   -9.5   -0.6
I    -8.3   -5.0   -0.6
H     7.9    1.7   -5.4
H     2.6   -2.6   -9.0
H     7.5   -5.8    2.1
H     2.9   -1.2    9.2
P    -1.3    6.4   -7.2
H     1.7   -2.5    9.3
N     3.5   -3.2    8.5
I     3.3    2.0    9.0
P     7.5   -2.6    5.7
H    -8.7    1.7   -4.3
I     5.0    4.7   -7.0
H     5.9   -7.4    2.7
H    -3.0    2.2    9.1
H    -5.6   -3.0    7.5
H    -1.8    9.3    3.0
H     6.2   -6.8   -3.6
H    -1.8    3.4    9.1
H    -1.8    2.5   -9.4
H    -6.4    6.8    3.5
H     7.5   -5.5   -3.7
C     2.7   -2.3    9.4
P     7.7    6.5   -0.7
H    -4.4   -3.0    8.6
I    -6.0   -7.1   -4.0
H     3.3    6.0    7.5
H     4.5   -3.0    8.6
H     3.3   -4.2    8.7
H    -2.2   -6.3    7.7
H     9.2    1.7   -4.3
H   -10.1    1.7    1.1
I    10.2   -0.6   -0.6
I     7.5    6.6    2.5
C    -1.4    1.7  -10.1
H    -0.9    9.4   -4.2
H    -0.9    1.4   10.2
N    -6.3    7.1   -4.2
I     9.6    3.9   -0.6
I    -8.6    0.1    5.9
C   -10.0    2.1    2.1
C     7.3   -6.6   -3.5
P     3.2   -6.9   -7.2
I    -7.5   -0.7   -7.3
H     7.6   -6.8   -2.5
P   -10.2   -2.4   -0.7
H     3.4    4.8    8.7
I     5.7   -8.9   -0.8
C     7.8   -6.8    2.1
N    -5.4   -3.2    8.5
I    -7.7   -4.4    5.8
I    -7.6    4.5    5.8
H     7.7   -7.2    1.1
H     6.8    2.6    7.7
I     0.3   -8.8    5.9
N     6.8   -7.6    3.0
H    -7.3    6.9   -3.8
N     2.6   -3.0  -10.0
H   -10.2    2.1   -2.5
I     5.8    9.0   -0.8
I    -4.1    8.1    5.8
H     6.9   -7.2    3.9
H    -1.1   10.6    1.1
N    -9.7    1.5   -4.4
P     7.6   -2.5   -7.2
H    -9.9    0.5   -4.2
I    -1.1   -2.4  -10.4
H     1.6   -2.8  -10.3
H    -2.2    1.1  -10.5
I     0.4    9.0    5.9
H    -6.1    8.1   -3.8
I     9.5   -5.0   -0.6
I    -5.6    2.0    9.0
H    -1.8   -5.5    9.1
H     2.7   -9.8   -3.8
N    -2.0   10.3    3.0
N     3.6    5.8    8.5
P    -6.0   -7.1    5.7
H   -10.2    3.2    2.1
I   -10.4   -2.3    2.5
I     9.2    0.1    5.9
H    -6.4    7.2   -5.2
I   -10.0   -2.3   -4.0
I    -1.6    6.1    9.0
I     4.8    8.1    5.8
H    -6.0   -1.2    9.2
N    -2.1   -6.4    8.8
H     2.8  -10.6    1.1
H     2.8   -4.0  -10.0
I     7.9    6.7   -4.0
I     1.5    8.2   -7.3
I     3.1    2.3  -10.4
H    -5.6    6.0    7.5
H     5.9    2.2    9.1
H   -10.7    0.3    3.0
H    -0.0   10.9    2.5
H    -2.9   10.4    2.7
H    -5.6   -4.2    8.7
H     3.0   -2.5   10.5
I    -7.5    8.3   -0.6
H    -0.1   -7.1    8.7
C    -1.0   11.0    2.1
H    -6.3   -2.6   -9.0
C   -10.5    2.3   -3.5
N    -0.7   10.4   -4.4
H     2.7    6.3   -9.0
H     0.0    2.9  -10.9
H    -4.3    6.0    8.6
H     3.2   -1.2  -10.8
H    10.5   -2.1   -3.8
H    -5.5    4.8    8.7
H    -1.2   11.1   -2.5
P     7.6    6.3    5.7
N   -10.9    1.4    3.0
P     3.2   10.9   -0.7
H    -9.9    1.7   -5.4
H     0.3   10.6   -4.3
H     1.7    6.4    9.3
N     6.9    2.5    8.8
H   -10.3    3.4   -3.7
H     4.6    6.0    8.6
H     2.8    5.0  -10.0
P    -1.3  -11.4   -0.7
H     7.1   -8.6    3.0
N    -0.7    2.3  -11.2
H     8.8   -7.0    2.5
P    -5.8   -6.9   -7.2
H    -1.9   10.6    3.9
C    -6.2   -2.3    9.4
I     3.3   10.8    2.5
H     7.6    0.5    8.7
H    -1.9   -6.4   -9.4
N    -5.3    5.8    8.5
H    -4.4   -2.4  -10.5
I    -1.5  -11.2    2.5
C     3.5   -2.2  -10.8
H     4.3  -10.6    2.0
H     4.5   -2.4  -10.5
H    -9.0   -7.0    2.5
I    -3.1   -8.7   -7.1
I    -8.4    3.8   -7.2
H   -10.9    1.7    3.9
H    -3.0   -6.7    9.1
H     1.6  -11.0   -3.8
I     3.2   -6.9    9.0
H    -4.6  -10.6    2.0
H    11.0   -3.5    2.5
N     2.5  -10.7   -4.2
C    -1.0   -7.4    9.1
I     3.0   10.7   -4.0
H     2.4  -11.1    3.5
N     8.1   -7.5   -4.4
I     7.2   -2.8    9.0
N     3.5  -11.2    1.7
C     2.8    6.7    9.4
C    -1.5   11.3   -3.5
N     2.6    6.0  -10.0
H    -1.0   10.6   -5.4
I    -1.1  -11.2   -4.0
H    -2.6   11.1   -3.6
H     7.8   -7.3   -5.4
H    11.8   -1.7    1.1
I    -3.0    9.1   -7.1
H   -10.3   -5.8    2.1
H    -0.3    1.6  -11.9
P   -10.1    6.5   -0.7
H    -7.3   -2.5    9.3
H     6.7   -6.3    7.7
H     1.6    6.1  -10.3
H     7.1    2.5   -9.4
H     2.4  -10.6   -5.2
H     7.2    9.3    3.0
P   -10.3   -2.6    5.7
H     7.1    3.4    9.1
H    11.4   -2.1    3.5
I    -4.2   -9.8    5.8
I    -5.8    2.3  -10.4
I   -12.1    0.1   -0.8
H    -8.7   -7.3   -4.3
I     1.4   -9.6   -7.3
H    -1.3   -8.4    8.7
I     0.5   -0.1   12.2
C     7.9    1.5    9.1
N    -6.4   -3.0  -10.0
H    -6.2   -9.8   -3.8
I    -7.6   -9.5   -0.6
H    -1.4    2.9  -11.8
I    -8.5   -5.2   -7.2
P    12.1    2.0   -0.7
H    -5.7   -1.2  -10.8
H    -5.9   -2.5   10.5
H   -10.3   -5.5   -3.7
I     4.7   -9.8    5.8
H   -11.5    2.1   -3.6
P     7.6    6.4   -7.2
H   -11.9    1.5    2.7
H     6.0   10.4    2.7
H    -6.1  -10.6    1.1
I    -1.0    6.5  -10.4
H     7.9   -8.5   -4.2
C   -10.0   -6.8    2.1
C    -5.4   -2.2  -10.8
H    11.7   -0.9   -3.8
N    11.5   -1.8   -4.2
H    -1.3   12.1    2.1
P    -5.7   10.9   -0.7
H    -6.1   -4.0  -10.0
H     3.0    7.7    9.2
H    -0.8   -7.8   -9.5
I     9.4    3.8   -7.2
I    -5.6   10.8    2.5
H     9.1   -7.3   -4.3
C    11.8   -2.9    2.8
H     6.7    1.1  -10.5
H    -0.0   -6.0  -10.9
I    10.1   -4.4    5.8
H   -10.1   -7.2    1.1
H    11.0    5.4    2.5
C    -1.5   -7.2  -10.1
C     2.8  -11.9    2.8
P     3.0   10.7    5.7
H   -10.3   -6.8   -2.5
I   -10.4    6.6    2.5
H     8.9    1.8    8.7
I    10.2    4.5    5.8
P    -1.5   -2.6   12.2
N    -5.4  -11.2    1.7
