         400
 sphere cut out from bulk 
I     1.0   -0.4   -2.2
H    -0.1   -1.9    1.8
H    -0.2    2.3   -2.0
H    -1.9   -1.8    1.8
I     1.6    2.2    1.6
C    -1.1   -2.4    2.1
P     3.5    0.3   -0.1
I    -3.0    0.9    1.6
H    -2.0    2.4   -2.0
C    -1.1    2.9   -2.4
I     2.7   -2.3    1.6
H    -1.1   -3.4    1.8
P    -1.1    2.9    3.0
H    -0.9   -1.4    4.0
P    -1.1   -2.4   -3.5
N    -1.1   -2.4    3.6
H    -1.0    3.9   -2.0
I    -3.8   -1.6   -2.2
H    -1.2    1.9   -4.3
N    -1.1    2.9   -3.9
H    -0.4   -3.0    4.0
H     2.6   -0.2   -4.3
H    -2.0   -2.6    4.0
H    -0.2    3.2   -4.3
I    -0.2    0.6    5.4
H     2.5    0.4    4.8
I     4.2    2.8   -2.2
I    -0.4   -5.1   -2.2
P    -5.6    0.3   -0.1
H     3.5   -3.9   -2.0
H     3.5    1.2   -4.3
H    -1.8    3.5   -4.3
N     3.5    0.3   -4.7
H     3.4    4.5    1.8
I     5.3   -1.6   -2.2
I    -1.8    5.6    1.6
I    -4.9    2.8   -2.2
H     4.3   -0.2   -4.3
I    -1.8    0.0   -5.8
H     3.9   -0.6    4.8
N     3.5    0.3    5.2
H     2.6   -5.4   -2.0
I     6.1    0.9    1.6
H     4.1    1.1    4.8
H    -4.8   -0.2   -4.3
C     3.5   -5.0   -2.4
I    -2.9   -5.7    1.6
I     1.3   -2.9   -5.8
H     2.7   -4.4   -4.3
I     0.8    6.3   -2.2
P     3.5   -5.0    3.0
C     3.5    5.5    2.1
H     2.6    6.1    1.8
I    -6.3   -2.3    1.6
H    -5.0    1.1    4.8
H     2.6    5.2    4.0
H     2.6    0.8   -6.6
H    -5.5   -3.9   -2.0
C     3.5    0.3   -6.2
H    -5.2   -0.6    4.8
I     1.0   -4.6    5.4
I     1.8    3.7   -5.8
H    -5.6    1.2   -4.3
I    -3.5    3.3    5.4
N     3.5   -5.0   -3.9
I     0.5    4.8    5.4
I     1.5   -6.9    1.6
H     4.3   -5.6   -2.0
N    -5.6    0.3   -4.7
I    -4.1   -3.1    5.4
P     3.5    5.5   -3.5
N     3.5    5.5    3.6
H    -5.7    4.5    1.8
H     3.5   -0.8   -6.6
C     3.5    0.3    6.7
H     4.2    4.9    4.0
H    -4.8   -5.6   -2.0
H     2.9   -0.6    7.0
H     7.2   -1.8    1.8
H     4.4    6.0    1.8
N    -5.6    0.3    5.2
I    -2.7   -4.1   -5.8
P    -1.1   -7.6   -0.1
H     4.4   -4.6   -4.3
H     3.1    1.2    7.0
H    -6.5   -0.2   -4.3
H     7.1    2.4   -2.0
H    -4.7    6.0    1.8
C    -5.6   -5.0   -2.4
H    -4.7   -4.6   -4.3
H     4.4    0.8   -6.6
I    -7.5    2.2    1.6
I     5.0   -3.1    5.4
H    -4.9    4.9    4.0
H    -1.0   -6.6   -4.3
P    -1.1    2.9    7.4
H     3.3   -5.9   -4.3
P    -5.6   -5.0    3.0
H    -4.7    0.8   -6.6
C    -5.6    5.5    2.1
H    -6.6    0.4    4.8
P    -1.1    8.1   -0.1
P    -1.1   -2.3   -7.9
I    -3.2    5.0   -5.8
H     4.5    0.1    7.0
H    -0.5   -6.8    4.8
C    -5.6    0.3   -6.2
H    -4.6    0.1    7.0
I     5.6    3.3    5.4
I    -8.1   -0.4   -2.2
N    -5.6   -5.0   -3.9
H     3.7    6.5    4.0
I     6.2   -5.7    1.6
H     7.1   -2.6    4.0
I    -3.6    7.5   -2.2
P    -5.6    5.5   -3.5
C     8.0   -2.4    2.1
H    -5.6   -0.8   -6.6
N    -5.6    5.5    3.6
H    -1.7    2.1   -8.3
H    -0.0    2.8   -8.3
C    -5.6    0.3    6.7
H    -0.7    7.3    4.8
H    -6.5   -5.4   -2.0
H    -0.2    7.6   -4.3
H    -6.4   -4.4   -4.3
H     7.9   -3.4    1.8
C     8.0    2.9   -2.4
H    -0.2   -1.8    8.7
N    -1.1   -7.6   -4.7
H    -1.9    7.7   -4.3
P     8.0    2.9    3.0
P     8.0   -2.4   -3.5
H    -6.5    6.1    1.8
I     1.5    8.8    1.6
N     8.0   -2.4    3.6
H    -2.0   -1.8    8.7
C    -1.1    2.9   -8.6
H    -2.0   -7.5    4.8
H     7.3    3.5   -4.3
H     7.9    1.9   -4.3
H    -0.2   -8.1   -4.3
H     8.1    3.9   -2.0
H    -1.5    3.9   -8.3
N    -1.1   -7.6    5.2
H     8.2   -1.4    4.0
H    -6.5    0.8   -6.6
I    -3.6   -8.3   -2.2
H    -6.5    5.2    4.0
H    -5.8   -5.9   -4.3
I     7.3    5.6    1.6
H    -6.0    1.2    7.0
H    -5.4    6.5    4.0
H     9.0   -1.9    1.8
H    -1.9   -8.1   -4.3
I     7.3    0.0   -5.8
N     8.0    2.9   -3.9
H    -6.2   -0.6    7.0
H    -1.1   -3.4    8.7
H     8.9    2.3   -2.0
C    -1.1   -2.4    9.1
N    -1.1    8.1   -4.7
I     5.5    7.5   -2.2
P     3.5   -5.0    7.4
I     6.3   -4.1   -5.8
H    -9.2   -1.9    1.8
H    -0.2   -7.1   -6.6
I     5.9    5.0   -5.8
H     3.1   -4.0   -8.3
N    -1.1    8.1    5.2
I     0.8   -9.4   -2.2
H    -1.1    7.1   -6.6
H    -2.0    8.2    4.8
H    -1.5   -6.6    7.0
H    -0.7   -8.5    4.8
H    -9.3    2.3   -2.0
I     1.3    2.3    9.4
H    -2.0   -7.1   -6.6
C    -1.1   -7.6   -6.2
I    -2.7    1.1    9.4
I     0.5   -0.4   -9.9
I     4.4   -7.3    5.4
I    -7.3    3.7   -5.8
H     8.7   -3.0    4.0
H    -1.0    9.1   -4.3
I    -7.8   -2.9   -5.8
H     2.6   -9.6    1.8
C    -1.1   -7.6    6.7
I     2.8   -2.6    9.4
H    -0.5    8.9    4.8
I     5.5   -8.3   -2.2
I     2.8   -7.9   -5.8
I     2.8    7.9   -5.8
I    -4.7   -7.3    5.4
P     3.5    5.5   -7.9
H    -1.7    7.3    7.0
I    10.1   -0.4   -2.2
C    -1.1    8.2   -6.2
I     8.7   -5.1   -2.2
I    -7.6   -6.9    1.6
H     3.5    4.5    8.7
I     8.9    0.6    5.4
H     8.9    3.2   -4.3
H    -0.0   -7.7    7.0
I    -1.8  -10.2    1.6
H     2.9   -5.8   -8.3
P    -5.6   -5.0    7.4
C     3.5   -5.0   -8.6
N    -1.1    2.9  -10.1
C    -1.1    8.1    6.7
I    -2.9   10.1    1.6
C   -10.2   -2.4    2.1
H    -0.0    8.0    7.0
H    -0.7    2.0  -10.4
I    -8.3    6.3   -2.2
I    -3.5   -2.0   -9.9
H    -9.5   -3.0    4.0
H    -9.3    3.2   -4.3
I    -8.0   -4.6    5.4
H     4.5   -5.1   -8.3
H    -4.6   -5.1   -8.3
I    -9.3    0.6    5.4
H     3.7   -9.3    4.0
H    -9.9   -1.4    4.0
H     2.6   10.3   -2.0
C   -10.2    2.9   -2.4
N    -1.1   -2.4   10.6
H     4.4   -9.8    1.8
H    -0.2    8.7   -6.6
H    -1.1   -8.6   -6.6
I    -0.4   10.7   -2.2
H     2.6    6.0    8.7
H   -10.2   -3.4    1.8
I     4.4    8.5    5.4
I    -1.8    5.3    9.4
I    -0.2   -4.7   -9.9
P   -10.2    2.9    3.0
H    -6.0   -4.0   -8.3
I    -9.5   -5.1   -2.2
H    -4.7   -9.8    1.8
P   -10.2   -2.4   -3.5
C     3.5  -10.2    2.1
H   -10.1    3.9   -2.0
N   -10.2   -2.4    3.6
H    -2.0    8.7   -6.6
I    10.7    2.2    1.6
P     8.0   -7.6   -0.1
H    -2.0    3.0  -10.4
H    -1.0   -1.4   10.9
I    -4.7    8.5    5.4
H    -0.5    3.7  -10.4
H    -1.7   -8.4    7.0
P    -5.6    5.5   -7.9
C     3.5    5.5    9.1
H     3.3    9.8   -4.3
I    -8.6    4.8    5.4
N   -10.2    2.9   -3.9
H     4.3   10.2   -2.0
H     7.4    2.1   -8.3
P     8.0    2.9    7.4
H    -5.6    4.5    8.7
I     4.4    3.2   -9.9
H   -11.0   -1.8    1.8
H     8.1   -6.6   -4.3
H    -0.3   -2.9   10.9
H   -10.3    1.9   -4.3
P     3.5  -10.2   -3.5
H     2.7    0.9   11.0
H     7.1   -7.5    4.8
H     7.2    7.7   -4.3
N     3.5  -10.2    3.6
I    -3.2   -5.5    9.4
H     7.1   -1.8    8.7
C    -5.6   -5.0   -8.6
I     6.3    1.1    9.4
H    -4.8   10.2   -2.0
P     8.0    8.1   -0.1
I    -4.7    3.2   -9.9
H    -5.4   -9.3    4.0
H    -1.9   -2.8   10.9
H     4.4    6.1    8.7
P     8.0   -2.3   -7.9
H     3.3   -0.7   11.0
H     2.6  -10.5    4.0
H   -11.1    2.4   -2.0
I     5.6   -2.0   -9.9
H     2.6   -0.0  -11.3
C     3.5   10.8   -2.4
H    -1.5    9.1    7.0
I     1.0    5.9   -9.9
H    -4.7    6.1    8.7
H     7.2   -8.1   -4.3
I    -6.3   -2.6    9.4
I    -6.3   -7.9   -5.8
I    -6.3    7.9   -5.8
P     3.5   10.8    3.0
I    -7.6    8.8    1.6
H    -6.5   -9.6    1.8
I     1.8   -6.8    9.4
N     3.5   -5.0  -10.1
H     2.5   -4.9  -10.4
H     4.4    0.6   11.0
C    -5.6  -10.2    2.1
H    -6.2   -5.8   -8.3
H     7.1    8.2    4.8
H     7.6    3.9   -8.3
H     3.4  -11.3    1.8
N     3.5    0.3   11.4
I     9.9    6.3   -2.2
I     6.2   10.1    1.6
H     3.7    1.2  -11.3
H     4.1   -4.2  -10.4
H    -4.7    0.6   11.0
N     3.5   10.8   -3.9
H     8.6   -6.8    4.8
I     9.6    4.8    5.4
H     7.1   -7.1   -6.6
C    -5.6    5.5    9.1
N     8.0   -7.6   -4.7
H     4.2   -0.4  -11.3
H    -1.0  -11.8   -2.0
H   -11.1   -2.6    4.0
C     8.0    2.9   -8.6
H     8.4    7.3    4.8
I    11.8   -2.3    1.6
N     3.5    0.3  -11.7
P    -5.6  -10.2   -3.5
H    -5.8    9.8   -4.3
P    -1.1    2.9   11.8
I     0.5  -10.9    5.4
N     8.0   -7.6    5.2
N    -5.6  -10.2    3.6
H   -10.9    3.5   -4.3
I   -12.1    0.9    1.6
I    10.4   -2.9   -5.8
H    -4.9   -0.4  -11.3
H     7.6   -6.6    7.0
H     4.2  -10.9    4.0
H    -5.0   -4.2  -10.4
H     8.0   -3.4    8.7
C     8.0   -2.4    9.1
I   -10.9    0.0   -5.8
I   -10.9    5.6    1.6
H     2.6    5.1   10.9
I    10.1   -4.6    5.4
N     8.0    8.1   -4.7
C    -5.6   10.8   -2.4
H    -6.5   10.3   -2.0
N     3.5    5.5   10.6
I     5.9   -5.5    9.4
I     1.0   11.2    5.4
H    -5.8   -0.7   11.0
I    -7.8    2.3    9.4
H    -6.5    6.0    8.7
H     8.8    7.6   -4.3
H     2.7   11.4   -4.3
H     3.5   11.8   -2.0
H    11.7   -0.2   -4.3
P    -5.6   10.8    3.0
H    -1.1   12.4    1.8
H     7.4    7.3    7.0
N     8.0    8.1    5.2
H    -5.4    1.2  -11.3
P    -1.1   -2.4  -12.3
H     9.1    2.8   -8.3
H    11.6    0.4    4.8
P    12.6    0.3   -0.1
N    -5.6   -5.0  -10.1
H     8.0    7.1   -6.6
H    -4.9  -10.9    4.0
H     3.9   -5.9  -10.4
H     8.9   -1.8    8.7
H    -9.1    2.8   -8.3
I     7.3  -10.2    1.6
C     8.0   -7.6   -6.2
I    -3.2  -10.8   -5.8
H     4.4   11.1   -4.3
P   -10.2   -7.6   -0.1
N    -5.6    0.3   11.4
H    -9.6   -6.8    4.8
H    -6.4    0.9   11.0
H    -5.7  -11.3    1.8
H     8.8   -8.1   -4.3
N    -5.6   10.8   -3.9
I    -8.3   -9.4   -2.2
H     4.3    5.0   10.9
I    10.6   -6.9    1.6
H    -4.7   11.1   -4.3
H    -9.3    7.6   -4.3
H    -9.3   -1.8    8.7
H   -10.1   -6.6   -4.3
P   -10.2    2.9    7.4
H     8.4   -8.5    4.8
H     8.1    9.1   -4.3
C     8.0   -7.6    6.7
I    10.9    3.7   -5.8
N    -5.6    0.3  -11.7
H     7.1    3.0  -10.4
H    -4.8    5.0   10.9
H     7.1    8.7   -6.6
