         400
 sphere cut out from bulk 
I     1.2   -0.2    1.3
P    -1.2   -2.1    0.2
I    -1.2    0.2   -2.1
P     1.3    2.1   -1.0
I    -3.7   -0.1    1.3
I    -1.1    3.7    0.3
I     1.2   -3.6   -1.2
P     3.7   -2.1    0.2
I     3.7    0.2   -2.1
P    -3.6    2.2   -1.0
H     0.3   -1.0    4.4
H    -1.1    0.3   -4.6
I    -1.3   -3.8    2.8
H     2.0   -1.4    4.4
I    -3.7   -3.6   -1.1
H     1.8    3.7    3.2
I     3.8    3.7    0.4
C     1.1   -1.4    5.0
I     1.3    3.7   -3.7
H    -3.8   -0.2    3.8
H     0.5    5.2    1.9
H     0.2    4.0    4.0
H    -0.4   -5.1   -2.6
N    -1.1    0.3   -5.6
H    -1.8   -3.8   -4.0
H     0.8   -2.4    5.2
C     1.1    4.4    3.7
H    -3.1    3.8    3.3
I     3.6   -3.8    2.8
H    -0.3   -0.3   -6.0
H     3.8    0.3   -4.6
H    -3.0    0.4    5.2
H    -2.9   -2.1    5.0
N    -3.8   -0.2    4.9
H     1.5    0.4    6.1
H    -1.9   -0.3   -5.9
N     0.9    5.5    2.8
I    -1.4    2.1    5.7
H    -0.3    2.2   -5.9
I     6.2   -0.1    1.3
I    -3.6    3.8   -3.6
H    -0.2   -4.2   -4.8
N     1.2   -0.6    6.3
H     0.4   -5.6    3.1
I    -6.1    0.2   -2.1
C    -1.2   -4.6   -4.4
P    -6.2   -2.1    0.2
C    -1.2    1.6   -6.2
N    -0.9   -5.6   -3.3
H    -2.1    2.1   -5.9
H     2.9   -4.0   -4.4
H     3.8   -4.6   -2.9
H     1.9   -5.8    2.6
H     3.0   -0.4   -5.9
H    -0.5    5.5   -3.7
P     6.2    2.2   -1.0
C    -3.8   -1.6    5.4
N     3.8    0.2   -5.6
H     1.7    6.1    2.6
H     0.4   -0.7    6.8
H    -1.9    5.8   -3.0
I     1.4   -2.1   -6.4
H     1.6    4.9    4.6
H    -3.0   -5.7    2.4
H     2.9    2.0   -6.0
H    -1.8   -6.0   -3.0
H     0.7   -6.7    1.9
N     1.1   -6.3    2.8
H    -4.7    0.4    5.2
C    -3.8    4.6    3.7
H     0.2    6.3    3.1
I     3.5    2.1    5.7
H    -4.5    5.2    1.8
C     3.8   -4.5   -4.0
I    -6.1    3.7    0.4
H     6.0   -0.2    3.8
H    -4.7   -2.1    5.0
H     2.0   -1.0    6.9
N    -1.1    6.3   -3.3
I     6.2   -3.6   -1.1
H    -0.6    6.8   -2.6
H     5.2    0.4    5.2
H    -3.2    6.1    2.4
H    -0.3   -6.3   -3.7
N    -4.0    5.6    2.7
H    -4.7    4.1    4.0
C     3.8    1.5   -6.3
H     4.7   -3.9   -4.3
H     2.9    5.4   -4.3
H    -1.7   -5.1   -5.2
H     5.2   -2.1    5.0
H     4.6   -0.4   -5.9
H    -3.3    5.1    4.6
H    -1.2    1.5   -7.3
H    -6.0    0.3   -4.6
I    -3.6   -2.1   -6.4
H    -3.8   -1.5    6.5
H     5.4    5.2    1.8
N     6.0   -0.2    4.9
H    -5.1   -3.9   -4.3
H     5.2    4.1    4.0
H    -4.5   -5.6    3.0
I    -6.3   -3.8    2.8
N    -3.8   -6.3    2.7
H     4.6    2.1   -6.0
H    -5.2   -0.4   -5.9
H    -6.0   -4.6   -2.9
I     6.2    3.8   -3.6
H    -4.3   -6.7    1.8
I    -0.9   -8.1    0.3
H    -5.2    2.1   -6.0
C     6.0   -1.6    5.4
N    -6.0    0.2   -5.6
H     5.3   -5.6    3.0
H     4.6    5.5   -4.2
H     3.1   -6.4   -4.3
I     1.0    8.2   -1.2
N     3.9   -5.8   -4.6
H     3.8    1.4   -7.4
C     1.3   -7.4    3.7
N     3.7    6.0   -4.6
H     6.8    3.8    3.3
H    -4.7    6.3    3.0
C    -6.0   -4.5   -4.0
C     6.1    4.6    3.7
N     5.8    5.6    2.7
H     6.8    0.4    5.2
H     1.8   -7.0    4.6
C    -1.4    7.3   -4.4
H     3.6    7.3   -2.9
H     5.1    6.3    3.0
I    -1.3   -2.4    8.3
I    -8.6   -0.2    1.3
I    -1.5    8.1    2.8
H    -5.3    5.5   -4.2
H    -3.1   -6.8    4.6
H    -1.9    6.8   -5.2
I    -6.4    2.1    5.7
H     7.0   -2.1    5.0
H     0.4   -7.9    4.0
P    -8.5    2.1   -1.0
P     8.6   -2.1    0.2
I     8.6    0.2   -2.1
C    -6.1    1.5   -6.3
H     5.6   -6.7    1.8
C    -3.6   -7.3    3.7
H     3.9   -5.8   -5.6
H     6.0   -1.5    6.5
H     2.0   -8.2    3.2
H     4.8   -6.4   -4.2
H    -6.9   -0.4   -5.9
H    -0.4    7.7   -4.8
H     3.7    6.1   -5.6
I     1.5   -8.2   -3.7
H    -6.9   -4.0   -4.4
N     6.0   -6.3    2.7
H    -7.8   -1.4    4.4
I     4.0   -8.2    0.4
C     3.6    7.4   -4.0
H    -2.9   -8.1    3.3
H    -5.1   -6.4   -4.2
I    -3.9    8.3   -1.1
I     6.3   -2.1   -6.4
I     3.4    8.1    2.8
H    -2.0    8.1   -4.0
H     6.9   -5.7    2.4
I     1.0    5.7    7.3
P    -1.4    3.7    8.4
I     3.6   -2.4    8.3
H     6.7    6.1    2.4
H     2.7    7.9   -4.4
H    -7.0    2.0   -6.0
H    -8.0    3.7    3.2
I     1.3    2.5   -9.0
I    -8.7   -3.6   -1.2
I    -3.4   -8.1   -3.6
I     8.7    3.7    0.3
H     6.6    5.1    4.6
N    -5.9   -5.8   -4.6
I     1.2   -6.2    7.3
H    -6.1    1.4   -7.4
N    -6.1    6.0   -4.6
I     8.5   -3.8    2.8
H     8.1   -3.8   -4.0
P     3.5    3.7    8.4
H    -6.9    5.4   -4.3
H    -4.5   -7.7    4.0
I    -1.1   -5.6   -8.1
H     8.7    0.3   -4.6
P     1.5   -9.7   -1.0
H     7.9   -0.3   -5.9
P    -1.4    9.8    0.2
P     1.4   -3.7   -9.1
H     7.8    2.1   -5.9
H    -5.9   -5.8   -5.6
I     1.0    2.2    9.7
H    -6.2    7.3   -2.9
I    -8.6    3.7   -3.7
I    -3.7    2.5   -9.0
I    -3.9    5.7    7.3
I    -5.9   -8.2    0.4
H     4.5    8.0   -4.3
H    -7.9   -5.8    2.6
C    -8.8   -1.4    5.0
H     5.4   -7.7    4.0
H    -6.7   -6.4   -4.3
I    -3.7   -6.2    7.3
I     6.0    8.3   -1.1
H    -6.1    6.1   -5.6
H     7.9    5.8   -3.0
I    -1.3    6.3   -8.1
C     6.3   -7.3    3.7
H    -8.4    0.4    6.1
P    -3.4   -9.7   -1.0
P     3.5    9.8    0.2
N     8.7    0.3   -5.6
I     8.4    2.1    5.7
C    -6.2    7.4   -4.0
C    -8.7    4.4    3.7
H    -8.1    6.1    2.6
P    -3.5   -3.6   -9.2
H    -7.9   -1.0    6.9
H    -5.3    8.0   -4.3
P     1.2   -4.0    9.7
I     3.9   -5.6   -8.0
H     8.1   -6.0   -3.0
H    -9.6   -1.0    4.4
H    -8.2    4.9    4.6
H     6.8   -6.8    4.6
I    -6.3   -2.4    8.3
N    -8.6   -0.6    6.3
H    -9.0   -2.4    5.2
I    -6.5    8.1    2.8
I    -1.0   -2.1  -10.5
I    -3.9    2.3    9.8
C     8.7   -4.6   -4.4
H     0.6    9.4    5.2
C     8.7    1.6   -6.2
I     3.7    6.3   -8.0
I    -8.5   -2.1   -6.4
H    -9.4    5.2    1.9
N    -9.0    5.5    2.8
I     6.4   -8.1   -3.6
H     8.1   -5.1   -5.2
I     5.9    5.7    7.3
P    -3.7   -3.9    9.6
H     9.5   -5.1   -2.6
N     9.0   -5.6   -3.3
H    10.1   -1.0    4.4
H     7.0   -8.1    3.3
P    -6.4    3.7    8.4
N    -8.8   -6.3    2.8
H    -9.7    4.0    4.0
I    11.1   -0.2    1.3
P    -1.2    4.0  -10.4
I     6.2    2.5   -9.0
I   -11.1    0.2   -2.1
H     9.6   -0.3   -6.0
P   -11.1   -2.1    0.2
N     8.8    6.3   -3.3
I     6.1   -6.2    7.3
I     3.8   -2.1  -10.5
I    -1.2   -9.7    5.7
H    -0.1   -9.7   -5.9
P    11.2    2.1   -1.0
H    -9.4   -5.6    3.1
H     8.7    1.5   -7.3
H    -3.1    9.8    5.0
H     9.6    2.2   -5.9
I    -6.0   -5.6   -8.0
H    -7.1    7.9   -4.4
H     9.4    5.5   -3.7
H    10.0    4.0    4.0
H    -9.2   -6.7    1.9
H    -1.9   -9.7   -5.9
H     1.8   10.5    4.4
H     9.6   -4.2   -4.8
H    -1.4    1.3   11.4
I   -11.0    3.7    0.3
C     0.9   10.5    5.0
H    -8.0   -7.0    4.6
P    -6.4    9.8    0.2
I     5.9    2.3    9.8
H     7.9    6.8   -5.2
P     6.4   -9.7   -1.0
I    11.0   -3.6   -1.2
H    10.3    5.2    1.9
H    -9.5   -0.7    6.8
I     1.2    9.7   -6.4
P     6.3   -3.6   -9.2
H   -10.2   -5.1   -2.6
P     3.7    4.0  -10.4
H     9.3    6.8   -2.6
H   -10.1   -0.3   -6.0
H     0.1   10.9    4.4
P    -1.2   -8.1    8.4
H    -7.8   -8.2    3.2
I     1.0   11.7    1.3
I    -1.0  -11.6   -2.1
I     3.7   -9.8    5.7
H     3.0   -9.8   -6.0
H   -11.0    0.3   -4.6
C    -8.5   -7.4    3.7
H    -9.6    6.3    3.1
H   -10.1    2.2   -5.9
I    -6.2    6.3   -8.0
H   -10.1   -4.2   -4.8
I     8.3    8.1    2.8
H     3.5    1.1   11.4
H     0.6   -0.4  -12.0
H     7.9    8.1   -4.0
P     6.1   -3.9    9.6
H    -4.9    9.8    5.0
C     8.5    7.3   -4.4
C    -1.0  -10.3   -6.2
H     5.0    9.8    5.0
I     8.9   -8.1    0.3
H     9.6   -6.3   -3.7
C    10.9   -1.4    5.0
H    10.3   -5.6    3.1
I   -11.2   -3.8    2.8
H     2.2   -0.8  -11.9
I    -8.9    8.2   -1.2
I     8.6   -2.4    8.3
H    10.7   -2.4    5.2
I     1.4  -12.1    1.3
P     3.7   -8.1    8.4
H    10.1    6.3    3.1
I    -3.8    9.7   -6.4
H   -10.3    5.5   -3.7
I    -8.4   -8.2   -3.7
I    -1.3   -5.8   10.7
I    -6.0   -2.1  -10.5
H    10.2   -0.7    6.8
I    11.1    3.7   -3.7
C    -4.0   10.3    5.4
P     1.2    8.2   -9.1
N   -11.0    0.3   -5.6
I    -1.5    6.0   10.7
I    -1.4   12.1   -2.1
N    10.7    5.5    2.8
I    -3.9   11.7    1.3
C    11.0    4.4    3.7
H     4.8   -9.8   -6.0
P     8.4    3.7    8.4
I     3.9  -11.6   -2.1
H   -10.1   -6.3   -3.7
H    -0.9  -11.6   -4.6
H    -5.0   -9.8   -6.0
P     1.0    7.9    9.7
N   -10.7   -5.6   -3.3
I    -3.5  -12.0    1.3
H    10.5   -6.7    1.9
N     1.4   -0.4  -12.5
I     1.1   -2.4   12.4
H    11.7    3.7    3.2
C    -1.4    1.4   12.5
I    -1.5    9.5    8.3
H   -10.4    6.8   -2.6
I    -8.6    2.5   -9.0
H    -1.0  -10.4   -7.3
P    -6.1    4.0  -10.4
C     4.0  -10.3   -6.3
C   -11.0   -4.6   -4.4
N    11.1   -0.6    6.3
H    11.9   -1.4    4.4
C   -11.0    1.6   -6.2
I     3.6   -5.9   10.7
I     3.5   12.1   -2.1
I     3.5    6.0   10.7
I    -8.9    5.7    7.3
I   -11.3    2.1    5.7
H    -0.5   -0.6   12.8
H     1.7    0.6  -12.7
P    -8.3   -9.7   -1.0
H    11.3    0.4    6.1
H    -3.6   -1.2  -12.3
H    -4.0   10.4    6.5
H   -11.6   -3.8   -4.0
I    -6.2   -9.8    5.7
P    -3.7    8.3   -9.2
N     1.0   11.2    6.3
H    -2.8  -11.5    5.2
I    -8.7   -6.2    7.3
N    10.9   -6.3    2.8
P     8.4    9.8    0.2
H    -4.0   11.7    3.8
H     6.8    9.8    5.0
N    -0.9  -11.6   -5.6
H     1.8   10.8    6.9
H    -9.5   -7.9    4.0
I     1.2    5.9  -11.5
P    -8.5   -3.7   -9.1
I     1.4   -5.9  -11.5
H    -0.5    1.9   12.9
C     5.9   10.3    5.4
H    -2.1   -0.6   12.8
H    -0.5   11.6   -6.0
C     3.5    1.3   12.5
I     3.4    9.5    8.3
