         400
 sphere cut out from bulk 
H     0.7    0.3   -0.3
C     0.4    1.3   -0.0
H     0.2    1.3    1.1
H    -1.7    0.9   -0.4
N    -0.9    1.6   -0.7
H     1.1    2.0   -0.3
H    -0.8    1.6   -1.7
H    -1.0   -2.5    0.3
H    -1.2    2.6   -0.4
I     3.0   -1.5   -0.2
I    -3.4   -0.7    0.2
H     1.3   -3.2    0.4
C    -0.7   -3.5    0.0
H    -0.6   -3.6   -1.1
N     0.6   -3.9    0.6
I     1.7    0.7    3.5
H     0.5   -3.8    1.7
I    -0.7    1.6   -4.1
H    -1.5   -4.3    0.3
H     2.2    2.5   -3.5
H     0.9   -4.8    0.4
I     4.0    2.9    0.2
P     4.6    0.3    2.0
H    -0.2    4.2    2.7
I    -2.1   -2.9   -3.6
I    -2.0    4.8    0.3
H     0.8    3.3    3.9
H     4.1    3.0   -2.2
I     0.3   -3.8    4.1
C     0.1    4.2    3.8
H    -1.6    3.3    4.4
C     2.9    3.3   -3.9
P    -4.9   -2.5   -2.0
I    -4.1    2.5    3.7
H     4.5    2.0   -3.5
N     4.2    3.0   -3.2
H     2.6    4.3   -3.5
P    -5.8    0.3    2.0
P     1.8   -1.6    5.7
P    -2.3   -0.6   -5.8
N    -1.0    4.1    4.7
P     5.5   -2.5   -2.0
H    -2.5   -4.7    3.5
H     0.7    5.1    4.0
H     3.0    3.2   -4.9
I    -5.1   -0.2   -4.2
I     4.7   -2.0    4.2
I    -4.3   -5.2   -0.2
I     5.3   -0.2   -4.2
H    -1.3   -5.1   -4.3
H     0.2   -6.3   -2.8
H    -0.7    4.0    5.7
H    -1.6    5.0    4.6
H     4.9    3.6   -3.5
I    -6.4    2.9    0.2
I     7.0   -0.7    0.2
H    -5.9    2.0   -3.5
H     1.1   -5.6   -4.2
I     0.3    6.1   -3.7
I     3.9   -4.7   -3.7
H    -4.5   -5.2    2.2
I     1.7   -7.0   -0.3
H    -6.3    3.0   -2.2
P    -4.8    5.2    1.9
H    -4.9   -4.2    3.5
I    -5.7   -2.0    4.2
C    -3.2   -5.5    3.8
P    -1.3    4.3   -6.0
H    -5.5    3.6   -3.5
C     0.3   -6.4   -3.9
H     3.6    0.4   -6.6
I    -7.4   -1.5   -0.2
N    -6.2    3.0   -3.2
I    -0.7   -0.6    7.5
N    -4.5   -5.2    3.2
N    -1.0   -6.1   -4.5
P    -2.2    7.1   -1.9
I    -3.8    5.3   -4.1
I     0.2   -1.6   -7.5
I     6.3    2.5    3.7
H     5.5   -4.2    3.5
P     5.6    5.2    1.9
I     3.2    6.3    3.6
H    -2.9   -6.5    3.5
H    -4.5    2.4    6.1
H    -3.3   -5.4    4.9
I     6.1   -5.2   -0.2
H     5.9   -5.2    2.2
H    -1.7   -6.8   -4.3
H    -3.2    1.1    7.6
H    -0.9   -6.1   -5.6
H     1.8    0.0   -8.2
I    -3.0    2.1   -7.6
N     5.9   -5.2    3.2
H    -4.3   -2.8    6.7
H    -2.6    2.8    7.6
H     0.6   -7.4   -4.2
I     1.6    3.9   -7.5
H     5.1   -5.9    3.6
C     3.8    0.3   -7.7
H     2.5   -3.5   -7.4
H    -5.3   -5.9    3.6
H     2.3    1.7   -8.2
I    -3.2    6.9    4.2
I     3.3    0.2    8.0
H     4.1   -4.7   -6.1
H    -2.4   -2.3    8.1
H     8.7    0.9   -0.4
H     5.9    2.4    6.1
H     0.8    8.0    3.5
N     2.6    0.7   -8.4
C    -3.4    2.1    7.9
P     0.9   -6.5    5.9
I     0.2    3.9    8.0
I    -6.5   -4.7   -3.7
N    -4.7    2.5    7.1
P     4.5   -7.4   -1.9
H     4.1   -0.7   -8.0
I    -0.5   -8.3    3.6
I    -5.0    7.5   -0.3
C    -7.5    3.3   -3.9
I     2.5   -4.3    7.6
H     2.0    7.8   -4.3
H     5.0    1.8    7.4
I    -3.9   -2.4   -8.0
H     4.6    1.0   -7.9
I     5.4    7.5   -0.3
H     2.1   -5.2   -7.4
H    -8.2    2.5   -3.5
I    -0.6    9.3   -0.2
H     4.3    7.1   -4.2
H    -5.4    1.8    7.4
C    -4.4   -2.7    7.8
I     3.5   -7.6    4.2
C     2.8   -4.5   -7.7
I    -8.7    0.7    3.5
I     6.6    5.3   -4.1
H    -7.4    3.2   -4.9
N    -3.1   -3.0    8.4
H    -2.8   -3.9    8.2
H    -1.6    8.6    3.6
H     6.1   -2.8    6.7
N     5.7    2.5    7.1
H    -6.8    0.4   -6.6
H     3.9    8.2   -2.8
H    -9.3    2.0   -0.3
I     8.3   -2.9   -3.6
H     9.2    2.6   -0.4
N     4.1   -4.8   -7.1
H    -4.7   -1.7    8.1
H    -5.0    3.4    7.4
H    -7.8    4.3   -3.5
H    -0.8    9.3    2.2
P    -5.8   -7.4   -1.9
H    -9.1   -3.2    0.4
N     9.5    1.6   -0.7
I     8.4    4.8    0.3
P     1.9   -9.3    1.9
H     9.4   -2.5    0.3
H    -9.7    0.3   -0.3
I    -3.4   -8.4   -3.7
H     4.9   -4.1   -7.4
H     5.4    3.4    7.4
C     7.2   -5.5    3.8
H     7.9   -4.7    3.5
I    -2.0   -6.1    7.4
C     0.5    9.1    3.8
H     9.6    1.6   -1.7
H     2.7    0.6   -9.5
P     0.9    1.2    9.8
C     4.0    8.1   -3.9
H    -5.8    1.0   -7.9
H    -3.6    2.1    8.9
H     8.9   -4.3    0.3
N    -0.9    9.3    3.2
N     2.7    8.4   -4.5
H    -6.3   -4.7   -6.1
P     8.1   -0.6   -5.8
H     5.7   -1.7    8.1
I    -0.7   -6.1   -8.0
C   -10.0    1.3   -0.0
C    -6.6    0.3   -7.7
H    -5.5   -4.1   -7.4
H     7.1   -5.4    4.9
H    -6.3   -0.7   -8.0
C     6.0   -2.7    7.8
I    -7.2    6.3    3.6
H    -5.1   -3.5    8.2
H    -6.1    7.1   -4.2
C     9.7   -3.5    0.0
H   -10.2    1.3    1.1
H     5.3   -3.5    8.2
H     8.8    3.3    4.4
H     0.4    9.1    4.9
H     2.9   -4.5   -8.8
H     4.5   -5.7   -7.4
H    -3.2   -3.0    9.5
H     1.2    9.8    3.5
P    -8.6   -1.6    5.7
P    -1.3   -3.4   -9.8
H     2.2   10.2    0.3
H     9.8   -3.6   -1.1
H     2.8    8.4   -5.6
H     7.5   -6.5    3.5
I     3.0   -9.2   -4.1
H     7.2    1.1    7.6
I    -1.4    6.6   -8.1
N    -9.8   -3.9    0.6
H     2.4    9.4   -4.3
N    -6.2   -4.8   -7.1
I     6.5   -2.4   -8.0
H    -3.0   -9.4    4.0
H    -9.5   -4.8    0.4
I    -7.1    0.2    8.0
I     9.7    1.6   -4.1
H     4.6    9.7    0.4
C     7.0    2.1    7.9
H    -9.9   -3.8    1.7
H    10.6    1.3    1.1
I    -2.8    9.8   -3.7
I     7.4    2.1   -7.6
H    -6.5    8.2   -2.8
H    -3.8    2.2   -9.9
I     4.7   -9.7    0.3
C    10.8    1.3   -0.0
I     7.2    6.9    4.2
H    -1.1  -10.2   -3.5
H    -9.6    3.3    3.9
H     4.8    8.9   -4.2
P     4.6    8.0    5.9
H    -1.2   10.3    3.5
I     4.8    5.6    8.1
P     8.2    7.1   -1.9
C    -6.4    8.1   -3.9
I    -6.8   -7.6    4.2
H    -5.9   -5.7   -7.4
H    11.1    0.3   -0.3
H     2.3   -4.3   10.0
H     8.8    5.0    4.6
I    -8.7   -7.0   -0.3
H     7.8    2.8    7.6
N     9.4    4.1    4.7
I    -5.6   -9.7    0.3
H     9.1   -5.1   -4.3
H    -5.8    9.7    0.4
H    -5.6    8.9   -4.2
I     1.7    8.4    7.4
H    10.2    4.2    2.7
C     2.9   11.0    0.0
H    -3.9  -10.3    2.7
I    -5.6    5.6    8.1
H     3.1   10.9   -1.1
H    -7.9   -3.5   -7.4
H     6.8    2.1    8.9
N   -11.3    1.6   -0.7
H   -11.2    1.6   -1.7
N     4.3   10.6    0.6
P    -5.8    8.0    5.9
H     1.3  -10.9   -3.5
N    -7.8    0.7   -8.4
P     1.9    6.1    9.6
I     7.0   -8.4   -3.7
N     7.3   -3.0    8.4
C    -3.5  -10.3    3.8
P     1.5    6.2   -9.7
I     0.3  -11.6    0.2
I   -10.1   -3.8    4.1
H     4.2   10.7    1.7
I    -2.0    1.6   11.3
H    -8.1    1.7   -8.2
H   -11.0   -3.6   -1.1
N    11.0   -3.9    0.6
H     8.0   -2.3    8.1
H    10.9   -3.8    1.7
H    -9.7    5.1    4.0
P     9.1    4.3   -6.0
C   -11.1   -3.5    0.0
H    -9.3   -5.6   -4.2
C   -10.3    4.2    3.8
H    -2.2    8.8   -7.4
H    11.5    2.0   -0.3
H   -11.4   -2.5    0.3
C    -7.6   -4.5   -7.7
H     0.5  -11.5   -2.2
H   -10.6    4.2    2.7
I    -7.9   -4.3    7.6
H     5.1   -9.5    4.6
H    -2.6    9.8   -6.1
H     8.7   -6.8   -4.3
H    -5.3   -9.5    4.6
H     7.6   -3.9    8.2
H    -8.6    0.0   -8.2
N    -4.2    2.3  -10.9
C    -0.8  -11.2   -3.9
H     1.9   -3.3   11.3
I   -11.0    1.6   -4.1
H   -11.6    2.6   -0.4
H     9.7    4.0    5.7
C    10.5    4.2    3.8
H    -2.4    1.5  -11.6
N     0.5  -11.5   -3.2
I     3.0    8.4   -8.0
N     2.2   -4.3   11.0
I     1.6   -3.8  -11.3
I     1.1   -8.9    8.1
I    10.7   -3.8    4.1
H     6.6    2.2   -9.9
I     4.0   10.7    4.1
I     1.1   -1.1   12.0
H   -12.1    0.9   -0.4
N     9.4   -6.1   -4.5
H    11.7   -3.2    0.4
I    -8.8    3.9   -7.5
I    -1.5   -1.1  -12.0
I     2.5    3.4   11.4
H    -7.7    0.6   -9.5
H    -8.4    7.8   -4.3
H    -2.9  -11.2    3.9
H    -4.8    1.5  -11.1
I     1.6   11.6   -3.6
P    -1.2   12.0   -2.0
H     2.7   12.0    0.3
H    -8.3   -5.2   -7.4
N    -7.7    8.4   -4.5
H    11.3   -4.8    0.4
H     7.2   -3.0    9.5
I     9.7   -0.6    7.5
H    -2.5    3.3  -11.6
I     3.1    0.7  -11.9
N    -6.1   10.6    0.6
H    11.2    3.3    3.9
H   -10.2   -6.3   -2.8
H    -0.7  -11.3   -4.9
H    -4.7    3.2  -10.9
N    -2.6    9.7   -7.1
N    -4.7  -10.4    4.7
I   -10.1    6.1   -3.7
H     5.0   11.3    0.4
C    -3.0    2.4  -11.8
H    -7.5   -4.5   -8.8
H     1.5   -5.0   11.3
I    -5.1   -7.9   -8.1
H    -6.2   10.7    1.7
H     6.5  -10.3    2.7
H    -4.2    5.0   10.6
I     5.3   -7.9   -8.1
C   -10.1   -6.4   -3.9
H    -5.4   11.3    0.4
H    -1.5  -12.0   -3.5
I    -7.4   -9.2   -4.1
H     5.6    1.5  -11.1
H     9.5   -6.1   -5.6
H     7.4   -9.4    4.0
I    12.1    0.7    3.5
H   -11.9   -4.3    0.3
H    -7.6    8.4   -5.6
H    10.6   -6.3   -2.8
H     4.2   -3.9   11.3
I    -3.4   -3.0   11.9
H     5.7    3.2  -10.9
H    -4.6    9.3   -7.4
H    -4.4  -10.5    5.7
N     6.2    2.3  -10.9
N     5.7  -10.4    4.7
H    -2.6  -12.5   -0.3
I     0.0    4.5  -12.0
P    -8.5   -9.3    1.9
I     8.4   -6.1    7.4
I   -10.2   -1.6   -7.5
H    11.1    5.1    4.0
I     2.6  -12.0    3.7
P    -5.0  -10.2   -6.0
I    10.7    6.1   -3.7
H     8.8    8.6    3.6
I     7.6    9.8   -3.7
H    -4.9  -11.9   -0.4
P    -1.8   -8.4    9.6
H    -2.7    3.8   12.1
H    -1.8   10.4   -7.4
H    -9.7   -7.4   -4.2
P    -9.5   -6.5    5.9
P    -2.2   -8.3   -9.7
C     6.9  -10.3    3.8
N   -11.4    4.1    4.7
C     3.5   -4.6   11.7
H     0.8  -12.5   -3.5
P     5.4  -10.2   -6.0
H    -9.6    8.0    3.5
H    -8.0    9.4   -4.3
H   -11.1    4.0    5.7
H     5.1  -11.2    4.4
C    10.7   -6.4   -3.9
I    -2.9   -5.6  -11.5
I    10.6   -1.6   -7.5
I     4.1    5.1  -11.3
H    -8.2   10.2    0.3
I    -6.4   10.7    4.1
H     5.5  -11.9   -0.4
I    -2.1  -10.6   -7.5
H    -5.3  -11.2    4.4
