         400
 sphere cut out from bulk 
I     1.5    1.4   -0.3
I    -1.9   -1.1   -0.2
P     0.7   -0.7    2.1
P     0.5   -0.8   -2.3
I     2.1   -2.7   -0.3
H    -3.4    1.0   -0.0
I    -1.2    1.2    3.6
H     1.2    3.6    1.8
H    -3.0   -2.3    1.7
H    -3.0    2.0   -2.3
N    -3.9    1.8   -0.4
H    -3.5    2.7   -0.1
H     4.1    1.8   -0.0
H     1.2    3.6   -2.5
I    -0.9    1.2   -4.3
H    -0.4    4.4    1.8
C    -4.0    1.8   -1.9
I     3.4   -0.1    3.5
I    -0.1   -3.4    3.6
H    -4.3    0.8   -2.2
C     0.6    4.4    2.2
H    -2.5   -2.8    3.2
H    -3.6   -2.5   -2.4
H    -0.4    4.3   -2.5
N    -3.4   -2.6    2.7
H    -4.9    1.8   -0.0
I     3.0   -0.5   -4.3
H     4.7    0.8   -2.2
C     0.6    4.5   -2.8
H     1.0   -5.1   -0.9
H    -3.9   -1.8    3.1
I    -0.4   -3.0   -4.4
H     0.1    3.6    4.0
H    -0.1   -5.2    1.3
N     5.1    1.8   -0.4
H     4.4    2.6   -2.2
H     3.9   -3.5    1.9
I    -2.4    5.1   -0.3
C     5.1    1.8   -1.9
H     1.1    5.3    1.8
H     5.7    1.0   -0.0
H    -4.6    2.6   -2.2
N     0.6    4.4    3.7
H     0.2    3.6   -4.6
H     4.0   -3.6   -2.4
H    -3.3   -4.3   -2.4
C    -4.0   -3.5   -2.7
H     1.0    5.4   -2.5
N     0.6   -6.0   -0.6
C     0.5   -6.0    0.9
H     5.5    2.7   -0.1
H     1.6    4.4    4.0
H    -0.4   -6.1   -0.9
N     0.6    4.4   -4.3
H     1.5   -5.9    1.3
H    -3.7   -4.6    2.1
C    -4.2   -3.8    2.5
H     5.1   -1.8    3.1
H    -3.0   -3.3   -4.6
H     5.4   -2.5   -2.4
H    -5.1   -3.5    1.9
I    -5.6   -0.1    3.5
C     4.8   -3.8    2.5
H     6.0   -2.3    1.7
H     0.1    5.3    4.0
H    -5.0   -3.6   -2.4
H     1.6    4.5   -4.6
C     5.0   -3.5   -2.7
P     0.5   -0.8   -6.7
N    -4.0   -3.4   -4.2
H     6.1    2.0   -2.3
N     5.7   -2.6    2.7
H     4.5   -2.6   -4.6
H    -4.5   -2.6   -4.6
P    -3.9    1.8    5.5
H     1.1   -6.8   -0.9
H     4.5   -4.1    3.5
H     0.0    5.3   -4.6
I    -3.0   -6.3   -0.3
H    -4.6   -4.1    3.5
I     4.3    4.4    3.6
H     0.2   -7.0    1.2
I     2.7    6.6   -0.4
I     7.1   -1.1   -0.2
H    -0.3   -0.5    7.3
H    -3.0    1.9   -6.4
H     5.4   -4.6    2.1
I    -4.8    4.4    3.6
N     5.0   -3.4   -4.2
I    -6.0   -0.5   -4.3
H     1.2   -1.6    7.2
I    -7.0   -2.7   -0.3
H     5.7   -4.3   -2.4
I     4.2    4.7   -4.3
I    -7.5    1.4   -0.3
H    -4.4   -4.3   -4.6
P     5.1    1.8    5.5
H     6.5   -2.8    3.2
H     0.2   -5.1   -5.9
H     4.6   -4.3   -4.6
H    -4.5    0.9   -6.4
H     4.6    0.9   -6.4
C     0.4   -1.2    7.8
I    -3.2   -0.7    7.3
I    -4.8    4.7   -4.3
C    -4.0    1.8   -6.7
I     2.5    2.4    7.3
P     0.6   -6.0    5.5
P    -3.9    6.9    2.1
H     4.4    2.7   -6.4
H     6.0   -3.3   -4.6
I     3.1   -6.8    3.6
H    -4.6    2.7   -6.4
I     6.6    5.1   -0.3
P    -3.9    7.0   -2.3
I    -2.0    3.9    7.2
I    -1.3    7.6    3.6
I     1.4    1.8   -8.2
H    -0.1   -2.0    8.3
P    -8.3   -0.7    2.1
H     1.5   -4.8   -7.0
C     5.0    1.8   -6.7
I    -2.1   -1.3   -8.2
H     1.6    0.4    8.5
N     0.9   -5.6   -6.5
H     1.6   -6.1   -5.9
H     0.2    8.6    1.2
I    -1.5    7.3   -4.4
I     3.5   -6.7   -4.3
I     6.0   -6.3   -0.3
I     7.8    1.2    3.6
H    -7.8    3.6    1.8
I     2.5   -4.2    7.3
P    -8.5   -0.8   -2.3
P     5.1    6.9    2.1
H     1.2    8.8   -0.9
I     2.4   -2.8   -8.1
I    -1.3   -8.0    3.6
H    -7.8    3.6   -2.5
N     1.1   -0.3    8.9
P     5.1    7.0   -2.3
H     6.0    1.9   -6.4
I    -6.4    6.6   -0.4
I     8.1    1.2   -4.3
I    -2.0   -5.5    7.2
H    -3.5    1.0   -8.6
N    -4.0    1.8   -8.2
I     2.6   -9.0   -0.4
I     5.8   -0.7    7.3
I    -1.6   -8.3   -4.4
H    -7.4    4.4    4.0
H     0.4    0.1    9.5
H    -0.4    9.5   -0.9
H    -8.0   -5.1   -0.9
H    -7.5   -5.9    1.3
N     0.6    9.6   -0.6
C     0.6    9.6    0.9
H    -3.5    2.7   -8.6
I    -5.9   -6.8    3.6
H     4.1    1.8   -8.6
H     1.7   -0.9    9.5
I    -5.5   -6.7   -4.3
C    -8.4    4.4    2.2
H    -8.0    5.3    1.8
P    -4.0   -8.6   -2.3
I    -3.0    9.3   -0.3
P    -4.0   -8.7    2.1
I    -2.1    4.9   -8.2
H     8.6    4.4    1.8
N     5.0    1.8   -8.2
H    -3.4    6.2    6.9
P     9.5   -0.8   -2.3
P     0.6    4.5    8.8
H    -7.5    4.5   -4.6
H     8.6    4.3   -2.5
C     0.3   -6.4   -7.6
H     1.6    9.7    1.3
C    -8.4    4.5   -2.8
H    -8.0    5.4   -2.5
H    -0.4   -5.7   -8.2
P     9.8   -0.7    2.1
I     3.2    8.8    3.6
H    -5.0    1.8   -8.6
I     8.6   -3.0   -4.4
I    -6.5    2.4    7.3
P    -3.8   -3.4    8.7
H    -0.3   -7.2   -7.1
I     1.5    7.0    7.2
N    -8.4    4.4    3.7
I     9.0   -3.4    3.6
P     5.1   -8.6   -2.3
H     5.5    1.0   -8.6
P     5.1   -8.7    2.1
I    -9.1   -3.4    3.6
H    -8.9    3.6    4.0
H     8.9   -5.2    1.3
N    -8.5   -6.0   -0.6
P    -3.9    7.0   -6.7
H    -0.1   10.4    1.3
C    -8.5   -6.0    0.9
N    -8.4    4.4   -4.3
H     1.0  -10.3    1.8
H    -7.9   -6.8   -0.9
I     2.4    6.2   -8.1
H     5.5    2.7   -8.6
I     3.5    8.9   -4.3
H     0.9  -10.2   -2.5
H    -9.4    4.4    1.8
H     1.0   10.5   -0.9
H     8.6   -6.1   -0.9
H     9.2    3.6    4.0
H    -9.1   -5.2    1.3
I    10.5    1.4   -0.3
H    -8.9    3.6   -4.6
I    -3.3   -6.0   -8.2
H     4.2    7.0    6.9
I    -6.5   -4.2    7.3
P     5.2   -3.4    8.7
H    -9.5    4.3   -2.5
H     1.1   -6.8   -8.3
H    -7.8   -1.6    7.2
I     7.0    3.9    7.2
N    -3.9    7.0    7.2
I     6.9   -1.3   -8.2
C     9.6    4.4    2.2
I    -2.5  -10.5   -0.3
H     5.6    6.2    6.9
P    -8.5   -0.8   -6.7
I    -6.6   -2.8   -8.1
P     0.6    4.4   -9.9
I    -9.5   -3.0   -4.4
H     9.2    3.6   -4.6
H    -3.4   -7.7    6.9
I   -10.2    1.2    3.6
I   -10.0    1.2   -4.3
C     9.6    4.5   -2.8
P     5.1    7.0   -6.7
H    10.2    3.6    1.8
H    -4.9    7.0    6.9
I   -10.9   -1.1   -0.2
H    -3.4    7.9    6.9
I    -6.4   -9.0   -0.4
H    -0.2    8.4   -7.1
I     6.0    9.3   -0.3
H    -8.9    5.3    4.0
P     0.7    9.6    5.5
H     0.1  -10.4    4.0
H    10.2    3.6   -2.5
I    -5.9    8.8    3.6
N     9.6    4.4    3.7
P    -4.0   -3.4  -10.0
H    -7.4    0.4    8.5
H    -9.4   -6.1   -0.9
H    10.0   -5.1   -0.9
I    -0.3    2.2   11.1
H     9.1    5.3    4.0
N     5.1    7.0    7.2
H     1.6    9.5   -5.9
H    -7.4   -6.1   -5.9
H    -7.5   -4.8   -7.0
N     9.6   -6.0   -0.6
C     9.6   -6.0    0.9
I    -5.5    8.9   -4.3
I    -7.6    1.8   -8.2
H    -0.0  -10.4   -4.6
I     1.5   -8.6    7.2
H    -8.9   -7.0    1.2
I     7.5    7.3   -4.4
H     8.8   -0.5    7.3
H    -9.0    5.3   -4.6
H    -2.9    1.9   10.9
H     0.0    0.0  -11.4
H    -0.5  -11.3    1.8
C     0.6  -11.2    2.2
N     9.6    4.4   -4.3
I    11.1   -2.7   -0.3
I     7.8    7.6    3.6
I     7.0   -5.5    7.2
H     9.1    5.3   -4.6
C     0.5  -11.2   -2.8
I    -1.5   -3.0   11.0
H     0.0   -1.7  -11.4
H    -0.5  -11.3   -2.5
H    10.1    5.3    1.8
H     1.5   -0.8  -11.4
I     5.7   -6.0   -8.2
H     9.2   -7.0    1.2
H    10.0    5.4   -2.5
P     9.5   -0.8   -6.7
P    -4.0   -8.6   -6.7
P     5.0   -3.4  -10.0
H    -4.3    0.9   10.8
C    -8.6   -1.2    7.8
P    -8.4   -6.0    5.5
I     7.7   -8.0    3.6
H     4.1   -8.6    6.9
H    -4.4    6.1    9.0
H     5.6   -7.7    6.9
H    -8.8   -5.1   -5.9
I     3.6   -1.5   11.1
H    -3.6   11.0    2.1
N    -8.1   -5.6   -6.5
H    -9.3   -0.5    7.3
N     0.6  -11.2    3.7
H    -7.9    8.8   -0.9
N     0.5   -0.8  -11.8
I     6.9    4.9   -8.2
C    -3.9    7.0    8.7
H     4.7    6.1    9.0
H    -2.9    7.1    9.1
N    -3.9   -8.6    7.2
H     4.7    0.9   10.8
H     5.6    7.9    6.9
H     0.1   -5.1   10.8
N    -8.0   -0.3    8.9
C     0.3    9.2   -7.6
I     7.4   -8.3   -4.4
N     0.5  -11.2   -4.3
N    -3.9    1.8   11.2
H     1.6  -11.2    4.0
H    -4.9   -8.6    6.9
H    -7.3   -0.9    9.5
N     1.0   10.0   -6.5
H    -4.4    2.6   10.9
H     0.3   10.5   -5.9
H    -3.3   11.4   -2.4
P     5.1   -8.6   -6.7
H     4.6    2.6   10.9
H     9.3   -5.1   -5.9
H     1.5  -11.1   -4.6
H     1.1    8.8   -8.3
I    -1.4    2.4  -11.8
H    -3.4   -9.4    6.9
I    -6.6    6.2   -8.1
H    10.6   -5.9    1.3
H    10.6    4.4    4.0
H     1.1  -12.1    1.8
H    10.1   -6.8   -0.9
H   -11.5   -2.8    3.2
H     1.2  -12.0   -2.5
N     5.1   -8.6    7.2
C     5.1    7.0    8.7
H    -7.4    9.7    1.3
H     8.9   -2.0    8.3
C     9.4   -1.2    7.8
H   -12.0    2.0   -2.3
H    -8.8    8.6    1.2
H   -12.1   -2.3    1.7
H     1.6   -5.9   10.8
I     6.6  -10.5   -0.3
H    10.6    4.5   -4.6
I    -5.4   -1.5   11.1
H   -12.4    1.0   -0.0
I     4.1  -10.9   -4.3
H     5.4   11.0    2.1
N     5.2    1.8   11.2
I     3.1    4.7   11.2
I   -11.4    5.1   -0.3
H    -9.2   -2.0    8.3
I     4.2  -11.2    3.6
I    -1.3   -4.0  -11.8
I     4.1   -0.8  -11.8
I    -7.5    7.0    7.2
H    10.2   -1.6    7.2
I    -2.0   10.1    7.2
H     6.1    1.9   10.9
I     2.4   -9.4   -8.1
N     0.7   -5.9   11.1
P     9.7   -6.0    5.5
H     9.2    8.6    1.2
I    -4.9  -10.9   -4.3
H     4.5   -7.7    9.0
H     0.1  -12.1    4.0
H    -4.5   -7.7    9.0
I    -4.8  -11.2    3.6
I    12.0   -0.5   -4.3
I    -0.0   12.2    3.6
H    -2.9   -8.5    9.1
N    -8.4    9.6   -0.6
H     0.2   -6.8   10.8
I     3.1    3.6  -11.9
C    -4.2   11.8    2.5
C    -8.4    9.6    0.9
H    -4.5    7.9    9.0
I    -4.9   -0.8  -11.8
H   -12.5    2.7   -0.1
H    -0.3    9.9   -8.2
H     4.5    7.9    9.0
C    -3.9   -8.6    8.7
I    -0.8    6.4   11.1
H    -4.5   11.5    3.5
H     4.5   11.5    3.5
H     4.0   12.1    1.9
H     8.6    9.5   -0.9
H    -8.7    0.1    9.5
H     4.1   12.0   -2.4
H     0.1  -12.1   -4.6
N   -12.4   -2.6    2.7
I    12.4   -0.1    3.5
H     5.6   -9.4    6.9
