         400
 sphere cut out from bulk 
I     1.8   -0.9   -0.4
H    -0.2   -2.1    0.1
N    -1.1   -2.5    0.4
H    -1.8   -2.1   -0.3
H    -1.4   -2.1    1.3
H    -0.3    3.5   -0.3
H     2.3    0.3    2.7
H    -1.0    3.4    1.3
H    -0.7    0.3   -3.7
I    -3.3   -0.9   -1.9
C    -1.1    3.8    0.3
H    -2.1    3.5   -0.1
I    -2.1   -1.0    3.4
C    -1.1   -4.0    0.4
H     3.1   -1.9    2.2
P     3.4    1.4   -2.2
C     3.3    0.1    2.9
I     0.8    3.1   -3.0
H     3.9    0.4    2.0
H    -0.3   -4.3    1.0
H    -1.0   -4.3   -0.6
N     3.4   -1.4    3.1
I     0.7    3.1    3.7
C    -1.1    0.1   -4.7
H    -1.7   -1.8   -4.2
H    -2.1   -4.3    0.8
H     2.8   -1.6    3.9
P     3.4   -3.1   -2.3
I     4.1    3.1    0.4
H    -0.1   -1.7   -4.9
N    -1.1   -1.4   -4.9
I     2.5   -0.8   -4.5
H    -2.1    0.5   -4.8
H     3.7    0.6    3.8
N    -1.1    5.3    0.3
H    -5.1    0.4    2.0
I     0.7   -4.7   -2.9
H    -0.5    0.6   -5.5
H     4.4   -1.6    3.3
H    -0.2    5.7    0.6
P    -1.1    1.3    5.5
I    -5.0    3.1    0.4
H    -4.6   -1.6    3.3
H    -1.4    5.7   -0.6
I     0.9   -4.7    3.7
H    -1.8    5.7    1.0
I     5.8   -0.9   -1.9
I     1.3   -0.8    6.0
I     4.1   -4.7    0.4
P    -5.6    1.4   -2.2
H    -1.5   -1.6   -5.9
I    -3.7    3.0   -4.2
C    -5.7    0.1    2.9
P     3.4    4.7    3.1
N    -5.6   -1.4    3.1
H    -5.4    0.6    3.8
P    -1.1   -3.2    5.7
H    -6.0   -1.9    2.2
I    -5.0   -4.7    0.4
P    -5.7   -3.1   -2.3
H     3.1    6.0   -1.5
I    -3.8    2.9    4.9
P    -1.1    4.7   -5.0
I     1.9    6.9    1.1
I    -7.2   -0.9   -0.4
H    -6.8    0.3    2.7
H    -0.8    5.5    4.8
H     3.2    0.3   -6.6
I    -3.8   -4.8   -4.2
I     5.4    3.0   -4.2
H     2.8    6.2   -3.2
H    -6.2   -1.6    3.9
H     7.2   -2.1   -0.3
I    -2.0    6.8   -2.6
N     3.4    6.4   -2.3
H     7.0    3.5   -0.1
I     5.3    2.9    4.9
P     3.4   -6.4    2.9
I     7.0   -1.0    3.4
I    -3.7   -4.9    4.9
H     2.4    2.5   -7.1
H     2.3   -7.4   -2.0
I    -6.5   -0.8   -4.5
P    -5.7    4.7    3.1
H     4.4    6.2   -2.5
I    -3.3    6.9    2.6
H     2.7    0.3    7.6
I    -2.6   -0.9    7.6
P    -1.1   -6.4   -4.8
H     7.7   -2.1    1.3
H    -4.6    6.2   -2.5
I    -0.4    3.0   -7.6
I     5.3   -4.8   -4.2
H     7.0   -4.3    0.8
C    -1.2    5.9    5.7
N     3.4    0.7   -7.5
N     7.9   -2.5    0.4
H     4.2    2.6   -6.8
H    -2.2    5.6    5.9
H     6.9    0.5   -4.8
H     3.5    2.6    7.3
H     4.0   -7.4   -1.3
C     3.4    2.2   -7.5
H    -6.0    6.0   -1.5
C     3.4   -7.6   -2.1
H     3.7   -7.2   -3.0
H    -0.6    5.6    6.5
H     2.7    0.3   -8.2
I    -2.6   -0.9   -8.2
H     7.4   -1.8   -4.2
H     2.3    8.2   -2.0
I    -0.5    3.0    8.2
H    -4.8    2.6   -6.8
C     7.9    3.8    0.3
I     5.4   -4.9    4.9
I     1.3    7.0   -5.2
H    -5.9    0.3   -6.6
C     3.3    7.9   -2.1
N    -5.6    6.4   -2.3
H     8.1    3.4    1.3
I    -0.4   -4.8   -7.5
C     7.9   -4.0    0.4
H     4.4    0.3   -7.8
I     1.9   -8.7    1.1
N     3.4    0.7    8.2
P    -5.6   -6.4    2.9
H     3.6   -5.2   -6.5
H    -5.1   -7.4   -1.3
H    -4.7    0.3   -7.8
H     8.8   -2.1    0.1
I     2.5    7.0    5.3
H     4.3    0.3    8.0
H     8.4    0.3   -3.7
H     8.1   -4.3   -0.6
H    -1.7    7.7    4.7
H     4.0    8.2   -1.3
C     3.4    2.2    8.3
H     7.2    5.7    1.0
C     7.9    0.1   -4.7
H    -4.7    0.3    8.0
I    -8.2    3.1   -3.0
N    -1.1    7.4    5.6
H    -6.2    6.2   -3.2
I    -2.0   -8.7   -2.6
H     2.4    2.5    8.7
H    -1.7   -7.9    4.7
I     5.8    6.9    2.6
H    -0.1    7.7    5.4
N    -5.6    0.7   -7.5
H     8.7    3.5   -0.3
H    -5.3   -7.2   -3.0
N     7.9   -1.4   -4.9
H    -5.5    2.6    7.3
H    -9.3   -2.1    0.1
N     7.9    5.3    0.3
H     3.6    2.6   -8.5
H    -0.1   -7.9    5.4
H     7.7    5.7   -0.6
I    -8.3    3.1    3.7
I    -0.4   -4.8    8.3
C    -5.6    2.2   -7.5
I    -3.3   -8.7    2.6
H     7.5   -1.6   -5.9
H     3.7    8.4   -3.0
H     2.5   -5.2    7.8
H    -5.1    8.2   -1.3
H     3.2    0.3    9.2
P     7.9    1.3    5.5
C    -5.7   -7.6   -2.1
H     2.5   -5.1   -7.9
H     8.8   -4.3    1.0
I    -7.8   -0.8    6.0
H    -6.3    0.3    7.6
H    -0.2   -9.9    0.6
I     1.3   -0.8   -9.8
C     3.4   -5.5   -7.5
N    -1.1   -8.2    5.6
H    -5.5   -5.2   -6.5
I     6.4   -0.9    7.6
H    -1.4   -9.9   -0.6
I    -8.3   -4.7   -2.9
H    -9.4    3.5   -0.3
C    -5.7    7.9   -2.1
I    -7.2    6.9    1.1
N    -5.6    0.7    8.2
H    -6.6    2.5   -7.1
N     3.4   -9.1   -2.3
I    -2.6    7.0   -6.8
H    -1.8   -9.9    1.0
I    -8.2   -4.7    3.7
H    -1.5   -1.6    9.9
I     1.3   -8.6   -5.2
I     7.0    6.8   -2.6
H     4.3   -5.2    7.6
H    -1.5   -7.7    6.4
H    -6.7   -7.4   -2.0
H     3.1   -9.6   -1.5
H     4.2    2.6    8.9
H     8.6    0.6   -5.5
P     3.4    9.2    2.9
H    -1.5    7.8    6.4
C    -5.7    2.2    8.3
H    -0.5    0.5   10.2
P     8.0   -3.2    5.7
H     2.9   -9.4   -3.2
H     8.9   -1.7   -4.9
N    -1.1  -10.3    0.3
I     2.5   -8.5    5.3
H    -9.3   -4.3    1.0
H    -6.3    0.3   -8.2
P    -1.1    1.3  -10.2
H    -4.8   -5.2    7.6
P    -1.1    9.2   -4.8
H    -5.3    8.4   -3.0
H     2.7   -7.4   -6.8
H    -5.5    2.6   -8.5
H    -9.7    0.3   -3.7
I     6.4   -0.9   -8.2
H    -4.8    2.6    8.9
C     3.4   -5.5    8.2
P     7.9    4.7   -5.0
N   -10.2   -2.5    0.4
H     8.8    5.7    0.6
H     4.3   -5.2   -8.1
H    -9.2   -1.7   -4.9
P    -1.1   -3.2  -10.0
H     6.8    5.6    5.9
H     4.4   -9.4   -2.5
H   -10.0    3.4    1.3
H   -10.4   -2.1    1.3
H    -4.6   -9.4   -2.5
H    -4.8   -5.2   -8.1
I     5.8   -8.7    2.6
H    -6.7    8.2   -2.0
I     9.9    3.1   -3.0
H    -0.5    5.6   -9.2
N     3.4   -7.0   -7.5
H     3.2   -7.4    7.3
C   -10.2    3.8    0.3
C    -5.6   -5.5   -7.5
I     9.8    3.1    3.7
H    -9.3    5.7    0.6
H    -5.9    0.3    9.2
C   -10.2   -4.0    0.4
I    10.9   -0.9   -0.4
H     8.2    5.5    4.8
I    -6.6    7.0    5.3
N    -1.1   -1.4   10.8
H   -10.1   -4.3   -0.6
N    -5.6   -9.1   -2.3
H    -0.2   -1.7   10.9
H     2.7    8.2   -6.8
H    -9.5    0.6   -5.5
C    -1.1    0.1   11.0
H   -10.9   -2.1   -0.3
P    -5.6    9.2    2.9
H    -2.2    0.5   10.9
H     3.5   -5.2    9.3
H    -6.6    2.5    8.7
H    -0.8  -10.1    4.8
C   -10.2    0.1   -4.7
H     4.3   -7.4   -7.2
I     9.8   -4.7   -2.9
I    -2.6   -8.6   -6.8
P     7.9   -6.4   -4.8
C    -1.2   -9.7    5.7
H    -1.0   11.2   -0.6
H    -0.3   11.2    1.0
I     0.7   10.9   -2.9
I    -7.2   -8.7    1.1
N     3.4   -7.0    8.2
C     7.9    5.9    5.7
H    -4.7   -7.4   -7.2
H     3.2    8.2    7.3
N   -10.2   -1.4   -4.9
C    -5.6   -5.5    8.2
H    -6.0   -9.6   -1.5
H    -6.6   -5.2    7.8
H    -2.1   11.2    0.8
N   -10.2    5.3    0.3
I     7.0   -8.7   -2.6
H    -6.6   -5.1   -7.9
I     2.5   -0.8   11.2
I     0.9   10.9    3.7
I     9.9   -4.7    3.7
H    -2.2    5.6   -9.9
C    -1.1   11.6    0.4
H     7.3    7.7    4.7
H    11.3    0.3    2.7
I     4.1   10.9    0.4
H   -11.1    3.5   -0.1
I   -11.1   -1.0    3.4
I    -2.6    7.0    9.0
H     3.2   -7.4   -8.5
I     6.4    7.0   -6.8
I    -7.8    7.0   -5.2
H   -10.7   -1.8   -4.2
H    -6.2   -9.4   -3.2
P   -10.2    1.3    5.5
N    -5.6   -7.0   -7.5
C    -1.2    5.9  -10.1
H     4.3    8.1   -7.2
H    -2.2   -9.9    5.9
P     3.4  -10.9    3.1
H     7.4   -7.9    4.7
P    -1.1    4.7   10.8
C    -1.1  -11.8    0.3
H    -1.7   -1.8   11.6
I     8.6    3.0   -7.6
I    -3.8    3.0  -10.8
H     2.7   -7.4    8.9
H    -4.7    8.1   -7.2
N     3.4    8.6   -7.5
H   -10.4    5.7   -0.6
H    -6.3   -7.4   -6.8
H    -0.6  -10.0    6.5
H    -5.5   -5.2    9.3
H    -5.9   -7.4    7.3
H   -11.1   -4.3    0.8
I    10.3   -0.8    6.0
I    -5.0   10.9    0.4
I    -6.6   -8.5    5.3
P    -1.1  -10.9   -5.0
H    -0.7    0.3   12.0
P   -10.1   -3.2    5.7
H     4.3   -7.4    8.5
H     8.5    5.6    6.5
H    -0.3  -12.1   -0.3
I    -3.8   10.8   -4.2
H     3.2    8.2   -8.5
N     7.9    7.4    5.6
H   -11.2    0.5   -4.8
N    -5.7   -7.0    8.2
H    -1.5   -7.7   -9.3
H   -10.6   -1.6   -5.9
H    -1.0  -12.1    1.3
H    -4.7   -7.4    8.5
I     8.6    3.0    8.2
H    -9.9    5.5    4.8
P   -10.2    4.7   -5.0
H    -1.5    7.8   -9.3
H     7.2   -9.9    1.0
H    -2.1  -12.1   -0.1
H     2.9   -1.6  -11.8
H    -0.8    5.5  -11.0
I    -3.7   10.7    4.9
H   -10.9    5.7    1.0
N     3.4    8.6    8.2
H     2.7    8.2    8.9
I     5.3    3.0  -10.8
I     8.7   -4.8   -7.5
H    -6.4    8.2   -6.8
I    -3.6   -4.9  -10.8
H    -5.9    8.2    7.3
I    11.6   -0.8   -4.5
I     0.8    3.1  -12.1
H    12.1   -1.9    2.2
I    -9.5    3.0   -7.6
I   -12.3   -0.9   -1.9
H     7.5   -1.6    9.9
I    -7.8   -0.8   -9.8
H     7.7   -9.9   -0.6
I    -3.7    3.0   11.6
H     4.3    8.1    8.5
I    -2.0   -1.0  -12.4
H     3.7    0.6  -12.0
H     7.6   -7.7    6.4
P    -5.7  -10.9    3.1
H    11.9   -1.6    3.9
H     7.6    7.8    6.4
N    -1.1    7.4  -10.2
N     7.9   -8.2    5.6
H    -5.9   -7.4   -8.5
I     1.3    7.0   10.5
I    -2.6   -8.6    9.0
I     6.4   -8.6   -6.8
H    -4.7    8.1    8.5
C    12.4    0.1    2.9
I    -7.8   -8.6   -5.2
I     5.3   10.8   -4.2
N    -5.7    8.6   -7.5
P    12.5    1.4   -2.2
P    -1.1   -6.4   11.0
H     3.5   10.4   -6.5
I     0.8  -12.4   -3.0
I     2.5    7.0  -10.5
H    -0.1    7.7  -10.3
I    -9.5    3.0    8.2
H    -9.6    5.6    6.5
N    12.5   -1.4    3.1
I     5.4   10.7    4.9
I     8.7   -4.8    8.3
P   -10.2   -6.4   -4.8
I    -9.4   -4.8   -7.5
H     8.9    7.7    5.4
H     6.9    0.5   10.9
I    10.9    6.9    1.1
I     0.9   -4.7  -12.1
N     7.9  -10.3    0.3
P     7.9    1.3  -10.2
