         400
 sphere cut out from bulk 
H    -0.5   -1.6   -0.1
C    -0.8   -2.3   -0.9
I    -2.4    1.0    0.2
H    -0.1   -1.0   -2.4
I     2.1    1.8   -0.1
H    -1.0    1.3    2.3
N     0.1   -2.0   -2.1
H     1.1   -2.1   -1.8
H     0.3    0.4    3.0
H    -1.8   -2.2   -1.2
I     1.3   -1.8    2.5
N    -0.3    1.3    3.1
H    -0.6   -3.3   -0.6
P    -0.6    3.2   -1.3
H     0.3    2.1    3.0
H    -0.1   -2.6   -2.8
I    -0.3    1.2   -3.8
P     3.9   -0.4    1.3
I     3.7   -2.3   -1.3
C    -1.0    1.3    4.4
H    -1.7    0.5    4.5
I    -3.1   -2.5    2.9
H     2.3    1.9   -4.0
H     3.0    4.1    0.5
P    -5.0   -0.4    1.3
H     4.0    0.3   -3.3
H    -1.6    2.3    4.4
I    -0.6    5.0    1.3
H    -0.3    1.3    5.2
H     3.6    2.7   -3.2
P    -0.5   -4.0    3.9
N     3.4    2.1   -4.1
H    -3.7    1.2   -4.2
I     3.9    1.4    4.0
I    -5.2   -2.3   -1.3
H    -4.9    0.3   -3.3
C     4.2    0.9   -4.2
H    -4.0    4.0    1.9
H     3.1   -5.1    0.4
I    -2.3   -2.6   -4.9
I    -0.6   -5.9    1.3
I    -3.3    4.6   -2.4
I     1.3    5.3   -2.8
N     3.6    5.0    0.6
I     2.1   -2.1   -5.5
C    -4.7    0.9   -4.2
H     3.9    0.3   -5.1
I     1.3   -5.6   -2.8
I    -5.0    1.4    4.0
H     4.3    4.9   -0.2
H     3.4   -0.7    5.6
H     3.5    2.7   -4.9
H     3.1    5.8    0.4
P    -0.5   -0.6   -6.6
I     6.6    1.0    0.2
H     4.9    4.0    1.9
H    -3.8   -5.1    1.9
H     3.6    5.0    2.7
H    -4.6    4.9   -0.2
H    -5.3    2.7   -3.2
H     5.3    1.2   -4.2
C     4.4    5.0    1.9
I     5.8   -2.5    2.9
P     4.0   -4.1   -4.0
C    -4.6    5.0    1.9
I    -0.3   -2.2    6.7
N     3.7   -6.0    0.6
H     2.3   -1.6    6.5
I    -6.8    1.8   -0.1
H    -0.2    4.8   -5.3
H    -5.0    0.3   -5.1
H    -5.9    4.1    0.5
N    -5.6    2.1   -4.1
H    -3.9    5.8    1.9
N    -5.3    5.0    0.6
H     3.9   -3.1    5.4
N     3.3   -1.4    6.4
H    -1.6    3.9   -6.0
H     4.4   -6.0   -0.2
H     3.7   -5.9    2.7
H     5.1   -5.1    1.9
H     3.1   -6.8    0.5
I    -3.2   -6.4   -2.4
H    -4.5   -6.0   -0.2
H     7.1   -2.2   -1.2
P    -5.0   -4.1   -4.0
I     2.0    5.4    5.0
H    -3.7   -2.3    6.3
I     5.6    4.6   -2.4
C     4.4   -6.0    1.9
H    -0.6    7.6   -0.6
C    -4.5   -6.0    1.9
H    -5.8   -5.1    0.4
I     2.0   -5.6    5.0
H    -5.3    5.0    2.7
H    -5.4    2.7   -4.9
I    -2.4    4.9    5.6
C    -1.0    4.8   -6.1
P    -0.5   -7.7   -1.3
H    -5.5   -0.7    5.6
H    -6.6    1.9   -4.0
H     5.0    5.8    1.9
N    -5.2   -6.0    0.6
P    -0.6    6.9    3.9
I     1.2    1.8    7.7
C     4.1   -2.6    6.3
H    -5.1   -3.1    5.4
H    -0.2   -6.2   -5.3
H     3.6   -0.8    7.2
H    -1.5   -5.2   -6.1
H    -3.9   -6.9    1.9
I    -7.6   -1.8    2.5
I    -3.0    1.0   -7.6
H    -5.8    5.8    0.4
H    -7.8   -2.1   -1.8
P     3.8    3.4    6.5
I     1.4    1.6   -8.0
C    -4.8   -2.6    6.3
H    -5.3   -5.9    2.7
H     8.0    1.3    2.3
H     0.3    3.9   -7.5
H     5.2   -2.3    6.3
H    -1.6    5.7   -6.1
H     7.2    0.5    4.5
C     8.1   -2.3   -0.9
H     8.4   -1.6   -0.1
I    -2.4   -6.1    5.6
I     6.6   -2.6   -4.9
N    -5.6   -1.4    6.4
C    -0.9   -6.1   -6.1
C    -0.8    8.6   -0.9
H     5.0   -6.9    1.9
H    -0.2    8.3   -2.8
N    -0.2    4.8   -7.4
P     3.9    6.8   -4.0
H     4.0   -3.2    7.2
H     7.3    2.3    4.4
I    -3.3    1.1    8.1
I     5.7   -6.4   -2.4
P    -5.1    3.4    6.5
H    -5.8   -6.8    0.5
I    -6.8   -2.1   -5.5
H     8.4   -3.3   -0.6
P     8.3    3.2   -1.3
H     3.7   -2.5   -7.8
I     4.0    4.9   -6.5
H    -1.9    8.7   -1.2
H    -5.3   -0.8    7.2
H    -0.2    4.8    7.7
H     1.1    8.9   -1.8
C     7.9    1.3    4.4
N     0.0    9.0   -2.1
H    -8.7    0.4    3.0
P    -0.7   -0.2    9.2
H     0.5   -5.4   -7.5
H     8.9   -1.0   -2.4
H    -0.1   -4.5    8.1
N     8.6    1.3    3.1
N    -8.8   -2.0   -2.1
H    -5.0   -3.2    7.2
H    -8.6    2.1    3.0
H     0.4    5.6   -7.5
P    -5.0    6.8   -4.0
H     0.4   -8.8    3.0
H    -9.0   -1.0   -2.4
I     2.2   -9.1   -0.1
H    -0.6    9.4   -0.1
H    -1.6   -7.0   -6.0
H    -6.6   -1.6    6.5
I     3.7    8.6   -1.3
N     9.0   -2.0   -2.1
I    -3.2    8.5    2.9
I    -5.0    4.9   -6.5
I    -0.5   -2.4   -9.2
H    -0.9    4.8   -8.2
H    -3.8   -1.7   -8.6
I     8.6    1.2   -3.8
I     1.2    9.1    2.5
H    -9.5   -1.6   -0.1
N    -0.2   -6.2   -7.4
H     8.8   -2.6   -2.8
H     3.7   -8.3   -3.2
H     9.2    0.4    3.0
I     5.9    1.0   -7.6
H    -5.2   -2.5   -7.8
I    -7.7    5.3   -2.8
I     4.0   -6.1   -6.5
I     8.3    5.0    1.3
H    -0.2   -6.1    7.7
N    -9.2    1.3    3.1
H    -9.0   -2.6   -2.8
I     6.5    4.9    5.6
I    -7.6   -5.6   -2.8
H    -1.6   -8.7    4.4
I     5.6    1.1    8.1
H     9.3    2.1    3.0
H    -0.9   -9.6    2.3
I    -2.4    8.3   -4.9
C    -9.7   -2.3   -0.9
H    -3.9   -3.5   -8.5
C    -4.4   -2.5   -8.6
C     4.5   -2.5   -8.6
I    -9.2    1.2   -3.8
N     0.0   -5.5    8.4
H    -9.5   -3.3   -0.6
N    -0.0    5.5    8.4
P     8.4   -4.0    3.9
I    -6.9    5.4    5.0
P    -9.5    3.2   -1.3
N    -0.2   -9.6    3.1
H     5.1   -1.7   -8.6
H     8.6    1.3    5.2
I    -4.9   -6.1   -6.5
I    -6.9   -5.6    5.0
I    -2.3   -9.9    0.2
I    -5.3    8.6   -1.3
H    -0.1    9.9   -2.4
H     2.4   -9.1   -4.0
H     3.6   -8.2   -4.9
H    -9.9    1.3    2.3
H     3.8    7.8    5.4
H     7.3    3.9   -6.0
H     1.0    5.4    8.7
H    -0.8   -6.2   -8.2
H     0.4   -7.1   -7.5
I     8.3   -5.9    1.3
N     3.4   -8.8   -4.1
H    -5.2   -8.3   -3.2
H    -0.2    6.4    8.1
H     1.1   -5.6    8.7
H    10.0   -2.1   -1.8
I    -0.2   -9.7   -3.8
P     4.0    3.0   -9.2
H     5.0   -3.5   -8.5
I     6.5   -6.1    5.6
I     2.0    8.9   -5.5
C    -1.0   -9.6    4.4
I     5.8    8.5    2.9
I    10.2   -1.8    2.5
H    -9.2    1.3    5.2
H     3.2   -1.6  -10.1
I     2.0   -1.6   10.4
P     8.5   -0.6   -6.6
P     3.9   -7.6    6.5
H    -0.5    1.9  -10.6
H    -0.7    4.2    9.9
H    -5.1    7.8    5.4
P    -4.9    3.0   -9.2
H    -1.9    5.3    9.3
I    -9.6    5.0    1.3
H     7.4   -5.2   -6.1
N     3.8   -2.5   -9.9
C    -0.9    5.2    9.6
H    -0.2   -9.6    5.2
H     0.3  -10.5    3.0
C   -10.0    1.3    4.4
H    -5.4   -8.2   -4.9
P    -9.4   -4.0    3.9
I    -0.4    8.7    6.7
H   -10.7   -2.2   -1.2
I    -7.7    1.8    7.7
H     3.2   -3.3  -10.0
H    -1.9   -5.7    9.3
H    -0.5    0.1  -11.1
I     8.6   -2.2    6.7
I     4.0   -9.6    4.0
C     7.9    4.8   -6.1
H     7.4    5.7   -6.1
I    -7.6    1.6   -8.0
I     3.6    5.2    9.2
I    11.0    1.8   -0.1
N    -5.5   -8.8   -4.1
P    -5.0   -7.6    6.5
H     8.7    4.8   -5.3
H     4.3    1.5   10.3
C     4.1    8.4    6.3
C    -0.8   -5.8    9.6
H    -3.6   -9.8   -4.2
H     3.9    7.7    7.2
I    -9.5   -5.9    1.3
I    -2.4   -2.4   10.7
H     8.3    7.6   -0.6
P     3.9   10.5    1.3
H     7.0    8.7   -1.2
I   -11.3    1.0    0.2
H    -3.8    8.7    6.3
I    -6.8   -9.1   -0.1
H    -4.6    1.5   10.3
H     3.0    0.7   11.0
I    -2.3    4.5  -10.3
C    -0.7    1.2  -11.4
P     8.4   -7.7   -1.3
N    -5.1   -2.5   -9.9
P    -9.4   -0.6   -6.6
I     3.7   -5.8    9.2
I    -5.0   -9.6    4.0
H    -1.6  -10.5    4.5
P     8.3    6.9    3.9
H   -10.6    0.5    4.5
C    -4.8    8.4    6.3
H     3.0    2.4   10.9
H     2.2    9.3    6.5
H    -0.6   -5.1   10.4
H    -9.2    4.8   -5.3
I    -9.3   -2.2    6.7
H   -10.5    2.3    4.4
I     6.5    8.3   -4.9
H    -5.7   -1.6  -10.1
H    -5.0    7.7    7.2
C     4.3  -10.1   -4.2
N     3.6    1.5   11.1
P    -5.0   10.5    1.3
H     0.2   11.4    3.0
C     8.0   -6.1   -6.1
H     7.3   -7.0   -6.0
I    10.2    5.3   -2.8
I    -5.3    5.2    9.2
H     5.1    8.7    6.3
C    -4.7  -10.1   -4.2
C     8.1    8.6   -0.9
H    -6.5   -9.1   -4.0
H     4.5   -2.5  -10.7
H    -1.8    1.3  -11.7
H    -4.5   -2.5  -10.7
H     5.3   -9.8   -4.2
I     6.6   -9.9    0.2
H     4.1  -10.7   -3.3
H     8.7   -6.2   -5.3
I    -0.7    1.6   11.8
I     1.3   -9.1    7.7
H    -0.7    5.9   10.4
N     3.2    9.6    6.4
H    -7.9    8.9   -1.8
I    10.2   -5.6   -2.8
H    -3.9    7.5   -8.5
H    -8.6    3.9   -7.5
I     2.2    5.3  -10.6
H    -5.8   -3.3  -10.0
H    -0.6   -6.8    9.9
I    -5.3   -5.8    9.2
H    11.3    1.9   -4.0
H     3.4   10.2    5.6
H     3.7    8.5   -7.8
P     4.0  -11.4    1.3
I    -7.7    9.1    2.5
H    -4.8  -10.7   -3.3
H    -9.1   -6.2   -5.3
I     2.2   -5.6  -10.6
H     7.4   -8.7    4.4
H    -0.0  -12.0   -2.4
H    -9.5    7.6   -0.6
I    -2.4   12.0    0.2
P    -9.5   -7.7   -1.3
P    -0.5   10.4   -6.6
I    -2.2   -6.4  -10.3
H     4.0   11.2   -3.3
N     8.7    4.8   -7.4
P     8.3   -0.2    9.2
N    -5.3    1.5   11.1
I     1.4   -9.3   -8.0
P    -9.5    6.9    3.9
H    -1.8   11.4    4.5
H     8.8    8.3   -2.8
H     8.0    4.8   -8.2
H     5.0    7.5   -8.5
I     3.8    1.1  -11.8
H     4.0  -10.6   -5.1
H     1.2    1.4  -12.3
P    -4.9  -11.4    1.3
H    -5.9    0.7   11.0
I    -6.9    8.9   -5.5
I    11.0   -2.1   -5.5
H     9.2    3.9   -7.5
H    -1.0   12.2    2.3
H    -8.5   -5.4   -7.5
H     8.3    9.4   -0.1
I    -0.6    8.5   -9.2
I   -11.2   -2.6   -4.9
H    -0.5  -12.5   -0.1
H     8.7    4.8    7.7
P    -0.5   -4.3  -11.8
C    -9.9    4.8   -6.1
I    -6.9   -1.6   10.4
I   -12.0   -2.5    2.9
H    -9.1    8.3   -2.8
H    -8.5    5.6   -7.5
N     0.2    1.5  -12.6
H    -8.5   -8.8    3.0
H    -5.9    2.4   10.9
N    -0.4   12.2    3.1
H    12.0    4.1    0.5
I     8.4   -2.4   -9.2
H    -5.0   11.2   -3.3
N    -9.2    4.8   -7.4
H    -5.3    8.5   -7.8
H     8.0   -9.6    2.3
H     8.8   -4.5    8.1
H    -4.9  -10.6   -5.1
N    -8.9    9.0   -2.1
H   -10.5    3.9   -6.0
