         400
 sphere cut out from bulk 
H     0.3    0.0   -0.4
C    -0.3    0.8   -0.1
H    -0.3    1.0    1.0
H    -1.3    0.7   -0.4
N     0.2    2.1   -0.7
H     1.2    2.3   -0.5
H     0.1    2.0   -1.7
H    -1.2   -2.6    0.4
H    -0.4    2.9   -0.4
I     2.8   -1.6   -0.2
H     1.1   -3.3    0.5
I    -3.5   -0.8    0.4
C    -0.9   -3.7    0.1
I     1.4    0.7    3.5
H    -0.7   -3.7   -1.0
N     0.4   -4.0    0.7
H     0.3   -3.9    1.8
I    -0.6    1.5   -4.1
H     0.5    3.0    3.3
I     3.6    2.9    0.2
H    -1.6   -4.4    0.4
P     4.3    0.2    2.1
H    -0.5    4.2    2.5
H     0.7   -4.9    0.5
H     2.2    2.5   -3.8
I    -1.9    4.6    0.5
I    -2.1   -3.0   -3.5
N     0.1    4.0    3.4
H     4.0    2.9   -2.2
I    -0.1   -3.8    4.2
H     0.9    4.6    3.4
H    -1.6    3.4    4.5
P    -5.0   -2.6   -1.9
C     3.0    3.2   -4.0
H     4.5    1.9   -3.4
N     4.2    2.9   -3.2
P    -2.3   -0.7   -5.7
C    -0.8    4.1    4.6
P     1.5   -1.5    5.8
P     5.3   -2.6   -1.9
I    -4.4    2.5    3.7
H     2.7    4.2   -3.8
P    -6.0    0.2    2.1
H    -2.9   -4.7    3.5
I     4.4   -2.1    4.4
I     5.1   -0.3   -4.2
H    -0.1    3.8    5.4
I    -5.2   -0.3   -4.2
H     3.3    3.1   -5.1
I    -4.3   -5.3   -0.2
I     6.8   -0.8    0.4
H    -1.4   -5.2   -4.3
H     0.0   -6.3   -2.8
I     0.3    6.0   -3.6
H     5.0    3.5   -3.4
H    -5.8    1.9   -3.4
H    -1.1    5.1    4.7
I     3.7   -4.8   -3.6
H     0.9   -5.7   -4.2
H    -4.3   -5.1    2.6
H    -5.3    3.5   -3.4
I     1.5   -7.1   -0.3
H    -6.3    2.9   -2.2
P    -1.3    4.2   -5.9
I    -6.7    2.9    0.2
I     5.9    2.5    3.7
C    -3.7   -5.4    3.4
P    -5.0    5.1    2.0
C     0.2   -6.4   -3.8
N    -6.1    2.9   -3.2
P    -2.2    7.0   -1.8
I    -3.7    5.2   -4.1
P     5.3    5.1    2.0
I    -5.9   -2.1    4.4
H     3.7    0.4   -6.7
I     2.8    6.2    3.6
N    -1.1   -6.1   -4.5
I    -1.0   -0.6    7.6
I     0.1   -1.7   -7.5
I    -7.5   -1.6   -0.2
H    -3.3   -6.4    3.3
I     6.0   -5.3   -0.2
H    -5.0   -4.4    4.7
H    -4.8    2.5    6.1
H    -1.8   -6.8   -4.2
H     6.0   -5.1    2.6
I    -3.0    2.0   -7.4
H     2.5   -3.4   -7.2
H     5.3   -4.4    4.7
H    -3.3    1.2    7.5
H    -1.0   -6.2   -5.6
H     1.8   -0.0   -8.2
N    -4.6   -5.3    4.6
H     0.5   -7.4   -4.1
I     1.5    3.8   -7.5
H    -2.8    3.0    7.5
H     4.0   -4.8   -6.0
H     5.5    2.5    6.1
I     3.0    0.3    8.1
H     2.2    1.6   -8.2
C     3.8    0.3   -7.8
H     0.4    8.1    3.3
H    -4.6   -2.4    7.0
H    -4.0   -5.5    5.5
P     0.5   -6.5    5.9
I    -3.5    6.9    4.2
P     4.4   -7.5   -1.8
N     2.5    0.7   -8.5
C    -3.6    2.2    7.8
I    -5.0    7.4   -0.3
I    -6.6   -4.8   -3.6
H     1.9    7.6   -4.2
C    -7.3    3.2   -4.0
H     4.9   -6.0    4.5
H    -2.6   -2.2    8.3
H     4.7    1.9    7.4
H     9.0    0.7   -0.4
H     1.9   -5.1   -7.2
N    -4.8    2.6    7.1
I     2.1   -4.3    7.6
I     5.3    7.4   -0.3
H     4.1   -0.7   -8.1
N     5.7   -5.3    4.6
I    -0.1    3.9    8.2
C     2.7   -4.4   -7.5
I    -1.0   -8.3    3.6
C     6.6   -5.4    3.4
I     3.1   -7.5    4.2
I    -0.5    9.2   -0.2
H     4.3    7.0   -4.1
I    -3.9   -2.5   -8.0
H    -5.4   -6.0    4.5
H    -7.0    3.1   -5.1
H    -8.1    2.5   -3.8
H     5.7   -2.4    7.0
I     6.6    5.2   -4.1
N     5.5    2.6    7.1
N     4.0   -4.8   -7.0
H     3.8    8.1   -2.8
H     4.6    1.0   -8.1
I     8.2   -3.0   -3.5
H    -9.1    2.3   -0.5
H     7.4   -4.7    3.5
H    -6.6    0.4   -6.7
H    -7.6    4.2   -3.8
H    -5.6    1.9    7.4
H     9.1   -2.6    0.4
I     8.4    4.6    0.5
I    -8.9    0.7    3.5
H    -3.1   -3.8    8.3
H     4.8   -4.1   -7.3
C    -4.7   -2.5    8.1
H     5.1    3.5    7.4
N    -3.4   -2.9    8.6
P     1.6   -9.4    2.0
H    -5.2    3.5    7.4
C     0.1    9.1    3.4
P    -5.9   -7.5   -1.8
H     8.7   -4.4    0.4
H    -0.6    9.4    2.6
H    -9.2   -3.3    0.5
H    -1.6    8.5    4.5
C     4.0    8.0   -3.8
P     8.0   -0.7   -5.7
N     2.7    8.3   -4.5
I    -3.5   -8.5   -3.6
H     2.6    0.6   -9.5
I    -2.5   -6.0    7.4
H    -4.9   -1.5    8.5
H    -6.3   -4.8   -6.0
H    -3.7    2.3    8.9
H   -10.0    0.0   -0.4
H    -5.7    1.0   -8.1
H     7.0   -6.4    3.3
P     0.6    1.2    9.9
H     6.3   -5.5    5.5
C    10.0    0.8   -0.1
H     2.8   -4.3   -8.6
H    -5.5   -4.1   -7.3
C     9.4   -3.7    0.1
I    -0.8   -6.2   -8.0
H    -6.0    7.0   -4.1
C     5.6   -2.5    8.1
C    -6.5    0.3   -7.8
H     5.4   -1.5    8.5
H    10.0    1.0    1.0
H    -6.2   -0.7   -8.1
H     4.9   -3.2    8.4
H     4.3   -5.7   -7.3
N    -0.8    9.1    4.6
H     9.9    2.9   -0.4
H     9.6   -3.7   -1.0
H     2.1   10.1    0.4
H     2.8    8.3   -5.6
N   -10.1    2.1   -0.7
H     8.7    3.4    4.5
H     7.0    1.2    7.5
I    -7.5    6.2    3.6
H     0.9    9.8    3.5
H    -0.2    8.9    5.5
I     2.8   -9.2   -4.1
H     2.3    9.3   -4.3
P    -1.4   -3.5   -9.8
H    -5.4   -3.2    8.4
I     6.4   -2.5   -8.0
N    -6.3   -4.8   -7.0
I     7.3    2.0   -7.4
C     6.7    2.2    7.8
H   -10.2    2.0   -1.7
H     4.5    9.5    0.5
I    -1.6    6.5   -8.2
I     6.8    6.9    4.2
I     9.7    1.5   -4.1
H    -3.4   -2.9    9.7
H    10.6    0.0   -0.4
C   -10.6    0.8   -0.1
H   -10.6    1.0    1.0
P    -8.8   -1.5    5.8
N    -9.9   -4.0    0.7
I    -2.8    9.7   -3.6
H    10.4    2.0   -1.7
N    10.5    2.1   -0.7
H    -6.5    8.1   -2.8
H    -9.6   -4.9    0.5
H    -3.0    1.9  -10.2
H     4.7    8.8   -4.2
H    -9.8    3.0    3.3
H    -2.9   -9.8    3.4
P     4.3    8.0    5.9
I     4.6   -9.8    0.5
I    -7.3    0.3    8.1
P     8.1    7.0   -1.8
H   -10.0   -3.9    1.8
I     4.4    5.7    8.2
C    -6.3    8.0   -3.8
H    -1.1  -10.2   -3.8
H     9.8    4.2    2.5
H     7.5    3.0    7.5
H    -9.4    4.6    3.4
H    -6.0   -5.7   -7.3
H     1.9   -4.3   10.1
H    -7.8   -3.4   -7.2
H     8.9   -5.2   -4.3
H   -10.7    2.9   -0.4
H    -5.8    9.5    0.5
C     2.9   10.8    0.1
H     3.0   10.7   -1.0
H    -1.2   10.1    4.7
H    -5.6    8.8   -4.2
I    -7.2   -7.5    4.2
H     6.6    2.3    8.9
I    -8.8   -7.1   -0.3
I     1.3    8.4    7.4
N     4.2   10.5    0.7
C     9.5    4.1    4.6
I    -5.7   -9.8    0.5
H    -4.3  -10.3    2.5
N     6.9   -2.9    8.6
N    10.7   -4.0    0.7
H    10.6   -3.9    1.8
H     4.1   10.5    1.8
I     6.8   -8.5   -3.6
N   -10.2    4.0    3.4
N    -7.8    0.7   -8.5
H     9.2    5.1    4.7
H     7.7   -2.2    8.3
I    -0.2  -11.5    0.2
P     9.0    4.2   -5.9
P     1.4    6.1   -9.7
H     1.2  -10.9   -3.4
C    -7.6   -4.4   -7.5
H    -4.9   -9.4    4.7
I    -5.9    5.7    8.2
P     1.6    6.1    9.7
N    10.4    4.0    3.4
H    -2.2    8.7   -7.3
P    -6.0    8.0    5.9
H     7.2   -3.8    8.3
N    -3.7  -10.5    3.4
H    -8.1    1.6   -8.2
H    10.8    3.0    3.3
H    -2.5    9.7   -6.0
H   -11.6    0.7   -0.4
I    10.2   -3.8    4.2
H     8.5   -6.8   -4.2
H    11.5    2.3   -0.5
H   -11.0   -3.7   -1.0
H    -9.4   -5.7   -4.2
I   -10.9    1.5   -4.1
H     0.2  -11.5   -2.2
C   -11.2   -3.7    0.1
I    -2.3    1.6   11.4
H   -11.5   -2.6    0.4
H     5.4   -9.4    4.7
H    -8.5   -0.0   -8.2
C    -3.7    2.2  -11.0
I   -10.4   -3.8    4.2
H   -10.8    4.2    2.5
I     3.0    8.3   -8.0
H     1.5   -3.3   11.3
H    11.4   -3.3    0.5
N     9.2   -6.1   -4.5
C    -0.8  -11.2   -4.0
I     0.6   -8.7    8.2
I    -8.2   -4.3    7.6
I     3.7   10.6    4.2
I     1.5   -4.0  -11.2
N     1.8   -4.2   11.1
N     0.4  -11.6   -3.2
H    -4.0    3.2  -10.9
I     9.3   -0.6    7.6
H    -4.5    1.5  -11.1
H    -8.4    7.6   -4.2
P    -1.2   11.9   -1.9
H    11.0   -4.9    0.5
I     1.6   11.5   -3.5
H     2.6   11.8    0.4
H    -8.4   -5.1   -7.2
H    10.2    3.8    5.4
N    -7.6    8.3   -4.5
I    -8.8    3.8   -7.5
I     0.8   -1.1   12.1
N    -6.1   10.5    0.7
H     6.0  -10.3    2.5
I   -10.0    6.0   -3.6
H     6.9   -2.9    9.7
N    -2.5    9.7   -7.0
H    -7.7    0.6   -9.5
I    -1.5   -1.2  -12.1
H     4.9   11.2    0.5
I    11.7    0.7    3.5
C    -4.5  -10.4    4.6
H    -7.5   -4.3   -8.6
I     2.3    3.5   11.5
I     3.0    0.6  -11.9
H    -4.2  -11.6   -0.4
H   -10.4    3.8    5.4
I     7.8   -6.0    7.4
H   -10.3   -6.3   -2.8
H    -6.2   10.5    1.8
H    -3.3  -11.5    3.3
H    -4.1    5.0   10.5
I     4.9   -7.9   -8.2
H    -5.4   11.2    0.5
H    -0.5  -11.3   -5.1
H    10.3   -6.3   -2.8
H    -2.6  -12.2   -0.5
H     1.1   -4.9   11.4
H     9.3   -6.2   -5.6
H    -7.5    8.3   -5.6
C   -10.1   -6.4   -3.8
H    11.2    4.6    3.4
I    -7.5   -9.2   -4.1
I    -5.4   -7.9   -8.2
H    -2.4    1.1  -12.3
H    -3.9  -10.7    5.4
H     5.8    1.5  -11.1
H    -1.6  -11.9   -3.8
H     7.3    1.9  -10.2
H     3.8   -3.8   11.4
C   -11.1    4.1    4.6
H    -2.0    2.7  -12.2
I    10.6    6.0   -3.6
H    -4.6    9.4   -7.2
I    -0.1    4.3  -12.0
I     7.4    9.7   -3.6
H   -11.9   -4.4    0.4
H    -3.2    7.0  -10.1
I     2.1  -12.0    3.7
N    -2.8    2.1  -12.2
C     5.8  -10.4    4.6
I   -10.2   -1.7   -7.5
H     7.4   -9.8    3.4
H    -1.8   10.4   -7.3
H     2.4   -6.3  -10.9
N     6.6  -10.5    3.4
C    10.5   -6.4   -3.8
P    -5.1  -10.3   -5.9
N    -3.6  -12.4   -0.7
I    -3.7   -2.9   12.0
P     5.2  -10.3   -5.9
H     4.9  -11.1    4.5
H    -8.0    9.3   -4.3
P    -8.7   -9.4    2.0
H    -9.8   -7.4   -4.1
H     8.7    8.5    4.5
H    -8.2   10.1    0.4
I    10.4   -1.7   -7.5
I     9.3   -8.3    3.6
H     6.3    3.2  -10.9
C     3.1   -4.5   11.8
H    -7.3   10.7   -1.0
P    -2.2   -8.4    9.7
H     3.4   -7.5  -10.1
I     3.9    5.0  -11.4
C     6.6    2.2  -11.0
H     0.7  -12.6   -3.4
P    -2.4   -8.4   -9.7
H    -2.9    3.8   12.2
H     6.1  -11.6   -0.4
