         400
 sphere cut out from bulk 
I     1.1    0.1   -1.3
I    -1.3   -0.2    2.1
P    -1.3    2.1   -0.3
P     1.2   -2.1    1.0
I    -1.3   -3.7   -0.3
I     1.1    3.6    1.1
I    -3.8    0.1   -1.3
P     3.6    2.1   -0.3
I     3.6   -0.2    2.1
P    -3.8   -2.1    1.0
H    -1.0   -0.1    4.5
H     1.9    0.8   -4.2
H     0.3    1.6   -4.6
I    -1.3    3.7   -3.0
I     3.7   -3.6   -0.3
H    -0.2   -4.7   -2.4
C     1.3    1.2   -5.0
I     1.1   -3.6    3.7
I    -3.8    3.6    1.1
H    -3.8   -0.1   -3.8
H     2.0   -4.0   -3.2
N    -0.9   -0.0    5.6
H    -1.3    4.8    2.7
H     0.5   -0.6   -5.7
H    -0.4    4.1    4.1
H    -0.1    0.6    5.8
I     3.6    3.5   -3.0
H    -3.0   -0.7   -5.1
H    -0.2   -4.4   -4.0
N     0.2   -5.0   -3.3
H     1.8    2.1   -5.4
H     4.0   -0.4    4.6
C    -1.3    4.6    3.8
H    -1.7    0.6    5.8
N     1.0    0.2   -6.0
H    -2.9    1.7   -5.1
N    -3.8   -0.1   -4.8
H    -3.1   -4.1   -3.4
H    -2.2    4.1    4.1
I    -1.3   -2.6   -5.5
C     1.7   -5.0   -3.3
I     6.1    0.1   -1.3
H    -0.1   -1.9    6.0
H     2.8    4.0    4.2
I    -3.8   -3.5    3.8
H     2.0   -5.6   -2.5
C    -0.9   -1.3    6.3
H     3.7    4.7    2.8
P     6.1   -2.1    1.0
H    -1.9   -1.8    6.0
H    -4.0   -4.9   -2.0
I    -6.3   -0.2    2.1
P    -6.3    2.1   -0.3
H     1.9   -0.2   -6.4
C    -3.8    1.2   -5.4
H    -0.0    5.9   -3.4
H    -0.5   -5.4    4.2
H     0.4    0.6   -6.8
H    -0.2   -6.0   -3.4
C    -4.0   -4.7   -3.1
I     1.5    2.3    6.3
H    -4.6   -0.7   -5.1
C     3.7    4.6    3.8
H    -3.1    5.3   -3.5
H     2.1    6.2   -2.5
N     4.5   -0.6    5.5
I     3.6   -2.4   -5.6
H    -2.2   -5.3    4.3
H    -4.7    1.7   -5.1
H     2.0   -5.4   -4.2
I     6.1    3.6    1.1
H     6.1   -0.1   -3.8
H     3.0   -1.7    6.4
H    -4.8   -1.4    5.2
H    -4.9   -4.2   -3.4
I    -6.3   -3.6   -0.3
H     5.0   -4.2   -3.4
H     4.6    4.0    4.1
H     5.3   -0.7   -5.1
H     2.8   -5.4    4.2
H    -4.8    0.2    5.7
H     5.1   -1.4    5.2
H     3.1    0.0    6.8
H    -0.9   -1.1    7.4
H    -5.9   -0.4    4.6
H     5.2    1.7   -5.1
N    -1.2    5.9    4.5
I    -3.5    2.2    6.3
N    -1.4   -5.9    4.5
H    -0.1    7.2   -2.4
N     0.3    6.8   -3.3
C     3.6   -0.9    6.6
H    -3.8    1.1   -6.5
H     5.1    0.2    5.7
N    -5.4   -0.6    5.5
H    -1.4   -7.1    2.7
H    -0.4    6.5    4.2
C     1.8    6.8   -3.3
N     6.1   -0.1   -4.8
I    -6.3    3.5   -3.0
H    -5.4    4.0    4.1
H    -4.7    5.2   -3.5
H     5.9   -4.9   -2.0
N    -3.9    5.8   -3.7
H     2.1    6.4   -4.2
I     6.1   -3.5    3.8
H    -2.1    6.5    4.3
H    -3.2   -6.6   -3.5
H    -1.2    5.8    5.5
N    -4.0   -6.0   -3.7
C     5.9   -4.7   -3.1
H     4.4   -5.4    4.2
H     5.2    5.2   -3.5
H    -3.9    7.0   -2.0
H     2.9    6.5    4.2
I    -1.2    8.2   -0.3
N     3.6   -6.0    4.5
H    -6.3    4.7    2.8
H    -1.3   -6.0    5.5
C    -1.4   -7.2    3.8
C     6.1    1.2   -5.4
N     3.7    5.9    4.5
I     1.0   -8.3    1.1
H     3.5   -7.2    2.8
H    -0.1    7.4   -4.0
H    -3.9    5.9   -4.8
I    -1.2    2.1   -8.3
H    -4.0   -5.9   -4.8
C    -6.2    4.6    3.8
H     6.8   -4.1   -3.4
H     7.0   -0.7   -5.1
H     4.3   -1.1    7.5
C    -3.9    7.2   -3.1
H     2.1    7.9   -3.2
H    -5.5   -5.4    4.2
I    -6.3   -2.4   -5.6
H    -0.5   -7.8    4.1
I    -1.4   -8.2   -3.0
I     8.6   -0.2    2.1
H     7.0    1.7   -5.1
H     3.8    5.8    5.5
P     8.6    2.1   -0.3
H    -4.8   -6.6   -3.5
I    -8.8    0.1   -1.3
H    -3.0    7.7   -3.4
H     4.6    6.5    4.2
H     3.7   -6.0    5.5
C     3.6   -7.3    3.8
I     3.8    8.2   -0.3
H     6.2    1.1   -6.5
H     5.1   -6.6   -3.5
P    -8.8   -2.1    1.0
H    -2.3   -7.8    4.1
H    -8.1    0.8   -4.2
I     1.3    8.2    3.7
C    -6.3   -0.9    6.6
N     6.0    5.8   -3.7
I    -3.9   -8.3    1.1
H    -7.1    4.0    4.2
N     5.9   -6.0   -3.7
H     2.7   -7.8    4.2
I     6.4    2.2    6.3
P    -1.3   -4.0   -8.3
H     6.9    5.3   -3.5
I     3.7    2.1   -8.3
I     8.6   -3.7   -0.3
H    -5.4    6.5    4.2
H    -7.9   -4.0   -3.2
I     1.1   -5.9   -7.2
H     6.0    7.0   -2.0
I     1.3    5.9   -7.2
H    -5.7   -1.1    7.5
I     1.3   -2.3    9.1
I     3.5   -8.3   -3.0
I    -8.8    3.6    1.1
H    -7.0   -1.7    6.4
N    -6.2    5.9    4.5
H     5.9   -5.9   -4.8
H    -4.8    7.7   -3.4
H     7.7    4.1    4.1
H    -6.9    0.0    6.8
H     6.1    5.9   -4.8
N    -6.3   -6.0    4.5
I     8.6    3.7   -3.0
H     5.1    7.7   -3.4
C     6.0    7.2   -3.1
P    -1.4   -9.7   -0.3
P     1.3    9.7    1.0
I    -1.0    5.7    8.0
H    -7.1   -5.4    4.2
I    -3.7    8.3    3.8
P     3.6   -4.0   -8.3
I     1.1   -2.4   -9.5
P     1.5    3.7    9.1
H     4.5   -7.9    4.1
H    -6.4   -7.2    2.8
I    -3.6   -2.4    9.0
H    -8.1    2.1   -5.4
H    -7.9   -5.6   -2.5
I    -3.7    5.9   -7.2
H     9.0   -0.1    4.5
H     6.7   -6.6   -3.5
C    -8.7    1.2   -5.0
H     8.2    0.6    5.8
H    -6.2    5.8    5.5
I    -3.8   -6.0   -7.2
I    -1.1   -6.2    8.0
C    -8.3   -5.0   -3.3
H     8.6    4.8    2.7
I    -8.8   -3.6    3.7
H     8.1   -1.8    6.0
H    -7.8    6.2   -2.5
I    -6.2    8.2   -0.3
I     6.0   -8.3    1.1
H    -6.3   -6.0    5.5
H    -8.1   -0.2   -6.4
H     7.7   -5.3    4.3
P     1.3    3.7   -9.6
P     3.5   -9.7   -0.3
P    -3.5    3.7    9.1
C    -6.4   -7.3    3.8
P    -3.7    9.7    1.0
H    -5.5   -7.9    4.1
H    -7.0    6.5    4.2
H    -7.9   -5.4   -4.2
C     8.6    4.6    3.8
I     8.6   -2.6   -5.5
I    -6.2    2.1   -8.3
N     9.0   -0.0    5.6
I     4.0    5.7    8.0
I    -3.8   -2.5   -9.6
I    -1.0    2.2   10.4
H    -9.6    1.6   -4.6
I     3.8   -6.1    8.0
I    -8.4    2.3    6.3
N    -9.0    0.2   -6.0
I    -1.2    9.3   -5.5
P    -3.7    3.6   -9.6
H     6.9    7.7   -3.4
I    -6.4   -8.3   -3.0
H    -7.8    6.4   -4.2
H    -9.5   -0.6   -5.7
C     9.0   -1.3    6.3
H     9.8   -4.7   -2.4
H     7.9    6.5    4.3
I     6.2    8.3    3.8
C    -8.1    6.8   -3.3
H     9.5    4.1    4.1
I    11.1    0.1   -1.3
P    -1.1   -3.9   10.4
P    -6.3   -4.0   -8.3
I     6.1   -6.0   -7.2
I     6.2    5.9   -7.2
H     0.2  -10.3   -4.6
I     3.9    2.2   10.4
I     6.4   -2.4    9.0
H    10.2    1.6   -4.6
H     1.7   -9.8   -5.4
N     8.6   -5.9    4.5
P    11.1   -2.1    1.0
H     8.5   -7.1    2.7
H   -10.1   -4.7   -2.4
H    -1.1   -1.2  -11.3
P   -11.2    2.1   -0.3
N     8.7    5.9    4.5
H     9.8    0.6    5.8
H     9.7   -4.4   -4.0
N    -9.7   -5.0   -3.3
H    -7.3   -7.8    4.2
I   -11.3   -0.2    2.1
P    -1.2    7.8   -8.3
I    -6.0    5.7    8.0
I     1.4   -9.5    6.3
H    -7.8    7.9   -3.2
H   -10.0    0.6    5.8
H     9.4   -5.4    4.2
P     6.3    9.7    1.0
I     3.7    9.4   -5.6
H     7.6   -7.8    4.1
H     0.1   10.0    6.0
P    -6.4   -9.7   -0.3
I     6.1   -2.5   -9.6
H     9.0   -1.1    7.4
I    11.1    3.6    1.1
P     3.8   -3.9   10.3
P     6.4    3.7    9.1
H     9.9   -1.9    6.0
H    -9.5    0.6   -6.8
H    -3.0  -10.1   -5.1
H   -10.1   -4.4   -4.0
N    10.1   -5.0   -3.3
I    -6.1   -6.1    8.0
C     1.1  -10.6   -5.0
C     8.5   -7.2    3.8
H   -10.9   -0.1    4.5
H   -10.3    4.1    4.1
H   -10.0   -1.9    6.0
H    -1.7   10.0    6.0
H    10.4   -0.6   -5.7
I     1.0  -11.7   -1.3
I   -11.3   -3.7   -0.3
H     8.7    5.8    5.5
H     0.6    0.7   11.8
H     8.6   -6.0    5.5
I    -1.2   11.7    2.1
H     4.0   -1.2  -11.2
H     9.8   -6.0   -3.4
I     8.7    8.2   -0.3
P     6.2    3.6   -9.6
H     9.9    5.9   -3.4
H     1.7  -11.1   -4.2
H   -10.0    5.9   -3.4
P     3.8    7.9   -8.3
I    -3.6   -9.6    6.3
I    -1.2    5.6  -10.7
I     1.2   12.0   -1.3
I    -6.0    2.2   10.4
H     2.9   -0.0  -11.8
I     8.5   -8.2   -3.0
I    -8.9   -8.3    1.1
I   -11.2    3.7   -3.0
N   -10.9   -0.0    5.6
I     8.7    2.1   -8.3
H   -10.1   -6.0   -3.4
I    11.1   -3.6    3.7
N    -9.6    6.8   -3.3
P     1.4   -8.1    9.1
H     9.5    6.5    4.2
C    11.2    1.2   -5.0
I    -1.5  -12.1    2.1
C    -0.8   10.6    6.3
H    -4.8  -10.1   -5.1
H    10.3    0.6   -6.8
H     3.1   10.2    6.4
H     2.1   -0.1   12.2
I    -1.4   -6.3  -10.7
H     9.9    7.2   -2.4
H     5.1  -10.1   -5.1
I     3.7   11.7    2.1
I    -3.9  -11.8   -1.3
N    10.9    0.2   -6.0
C    -1.2   -1.4  -12.3
H   -10.5   -5.4    4.2
H   -10.0    7.2   -2.4
H   -11.3    4.8    2.7
I    -8.7    8.2    3.7
H    11.8    0.8   -4.2
C     3.4   -0.9  -12.0
H    -4.7   10.4    5.2
H    -2.9   11.1   -5.1
I    -3.7   12.0   -1.3
C    -3.9  -10.7   -5.4
H     0.6   11.2   -5.7
H    -0.8   11.7    4.5
P     8.6   -4.0   -8.3
I     1.3    2.3  -12.3
P    -6.1   -3.9   10.3
I    -6.2    9.4   -5.6
I     3.8    5.6  -10.7
C   -10.9   -1.3    6.3
P     1.2   -8.2   -9.6
N     1.2    0.3   12.6
H    -0.2  -11.3    5.8
H    -3.6    1.2   12.1
H    -5.9   -1.2  -11.2
I     3.5  -12.0    2.1
C   -11.2    4.6    3.8
H     2.8   -1.8  -12.3
N    10.2    6.8   -3.3
I    -8.6   -2.3    9.1
P    -3.6   -8.2    9.1
H     5.2   10.4    5.2
I    -8.7    5.9   -7.2
I   -11.2   -2.6   -5.5
H    -0.3   -2.0  -12.6
H    -1.8  -11.3    5.8
I    -8.8   -5.9   -7.2
I    -1.3   -9.8   -8.3
I     3.6   -6.2  -10.7
H    -1.1  -12.0    4.5
H     9.4   -7.8    4.1
H    -0.3    0.5  -12.9
I     1.4   -5.9   11.4
H    -3.7   11.8   -3.8
H    -2.1   -1.9  -12.6
H   -10.3    6.5    4.2
P     8.5   -9.7   -0.3
P    -8.4    3.7    9.1
H    -1.9    0.5  -12.8
I     1.5    6.0   11.4
H    11.9   -4.0   -3.2
H     9.9    7.4   -4.0
P    -6.2    7.9   -8.3
H     0.7   -0.5   13.0
I    -3.7    2.1  -12.3
P    -8.6    9.7    1.0
H   -11.7    0.6    5.8
H     4.1   11.5    4.6
C    11.6   -5.0   -3.3
H    -4.5   11.2   -5.1
