         400
 sphere cut out from bulk 
H     1.7    0.1    1.1
I    -1.6    0.8   -1.6
H    -0.3    1.1    2.1
H     1.0   -1.0    2.2
N     1.5   -0.1    2.1
C     0.7    1.1    2.7
I     2.8   -0.0   -1.2
I    -0.7   -2.8    1.2
H     1.2    2.0    2.5
H     2.4   -0.2    2.6
H     1.5   -1.9   -2.6
P    -3.3   -1.4    0.0
P     1.1    2.3   -2.6
H     0.5    0.9    3.7
H     1.2   -3.8   -1.1
H     0.1   -2.8   -3.1
I     0.8    4.1    0.1
N     1.2   -2.8   -3.0
I    -3.7    0.5    2.6
H    -1.8    4.3   -0.5
H    -2.5    0.1   -4.0
H    -3.4    3.1    0.7
C     1.6   -3.9   -2.1
I    -3.0   -3.3   -2.5
H     1.6   -2.9   -4.0
H    -3.1    3.9   -1.5
H     2.7   -3.9   -2.1
I     3.6   -3.6    1.4
N    -2.8    4.5   -0.7
I     1.1    0.5   -5.3
C    -3.6    4.2    0.5
H    -1.6    0.6   -5.3
N    -2.5    0.1   -5.0
H     1.3   -4.9   -2.6
P     5.5   -1.4    0.0
I     5.2    0.5    2.6
P     1.1   -5.1    2.6
H    -3.7   -2.8    3.8
H    -2.5   -0.9   -5.4
H    -3.3    4.8    1.3
H     4.2    4.3    0.2
I    -0.8    4.4   -4.2
I    -1.6    4.5    3.8
I     1.1   -3.1    5.2
I    -6.1   -0.0   -1.2
H    -1.6   -3.1    5.1
H    -2.9    5.5   -1.0
H     5.4    3.1    0.7
H    -2.8   -5.6   -1.0
H    -4.7    4.3    0.2
I    -0.9    0.7    6.3
I     3.7    3.9   -3.5
I     2.8    3.9    4.3
I    -5.2   -3.6    1.4
H    -3.6    1.9   -5.2
P     1.0    6.0    2.6
H    -3.7   -1.7    5.3
P    -3.5    2.3    5.2
C    -3.7    0.9   -5.6
C     5.2    4.2    0.5
C    -3.7   -2.8    4.9
H     4.3    0.4   -5.2
H     1.2    6.2   -2.6
H    -4.6    0.4   -5.2
N    -2.5   -3.5    5.4
H    -1.7   -6.8   -0.5
H    -6.5   -0.2    2.6
H     5.2   -2.8    3.8
I     0.9   -7.0    0.1
H    -3.2   -6.2    1.3
N    -2.7   -6.6   -0.7
H     5.8    3.9   -1.5
I     5.8   -3.3   -2.5
H    -7.2    0.1    1.1
H    -2.5   -4.5    5.1
I    -5.2    3.9   -3.5
I    -1.5   -2.9   -6.7
H     1.1    7.3   -1.1
H     5.5    4.8    1.3
I     7.3    0.8   -1.6
H     4.2   -3.3    5.2
H     6.4    0.1   -4.0
H    -6.2   -3.9   -2.1
N     6.1    4.5   -0.7
C     1.5    7.1   -2.1
H     5.2    1.9   -5.2
H    -3.6    0.9   -6.6
H     5.2   -1.7    5.3
I     2.9   -3.5   -6.1
C     5.2   -2.8    4.9
C     5.2    0.9   -5.6
N    -7.4   -0.1    2.1
H    -4.6   -3.3    5.2
I    -1.5   -6.6    3.8
C    -3.5   -6.9    0.5
H    -2.5   -3.5    6.5
I     3.6    0.2    7.0
P     5.4    2.3    5.2
H     2.6    7.1   -2.1
H    -3.0   -7.2   -1.5
I    -0.7   -6.7   -4.2
H     4.3   -6.7    0.2
P     1.0   -1.3    7.8
P    -3.3   -5.1   -5.2
H     1.4    4.5    6.5
H    -7.3   -1.9   -2.6
P     1.1   -1.4   -7.8
N     6.4    0.1   -5.0
H    -4.6   -6.7    0.2
H     0.5    4.5   -6.7
H     6.0    5.5   -1.0
H    -7.9   -1.0    2.2
H    -7.6    2.0    2.5
H     7.1    4.3   -0.5
H     6.1   -5.6   -1.0
H     1.1    2.5    7.9
I     3.5    7.4    1.4
H     6.4   -0.9   -5.4
I    -0.8    8.3    1.2
I    -6.1    3.9    4.3
H     5.7   -6.2    1.3
H     5.3    0.9   -6.6
C    -7.2   -3.9   -2.1
P    -7.8    2.3   -2.6
P    -3.4    6.0   -5.2
H    -7.7   -3.8   -1.1
H    -3.3   -7.9    0.7
C    -8.2    1.1    2.7
I     8.1   -2.8    1.2
H    -0.0    4.6    7.4
H    -2.6    6.6    5.1
I    -3.1    7.7   -2.5
I    -5.2    0.2    7.0
N    -7.7   -2.8   -3.0
C     5.4   -6.9    0.5
H     1.0    2.7   -8.3
H    -7.3   -2.9   -4.0
N     1.0    4.6    7.4
I     3.8   -7.2   -3.5
I     2.9   -7.1    4.3
H     0.0    8.3   -3.1
N     1.1    8.3   -3.0
H     2.4    3.5   -7.8
H     8.6    1.1    2.1
I    -8.0    4.1    0.1
H     7.3    0.6   -5.3
N     6.3   -3.5    5.4
N     6.2   -6.6   -0.7
C     0.7    4.7   -7.8
C     1.5    3.5    8.3
H     1.5    8.1   -4.0
P     5.6   -5.1   -5.2
N     1.5    3.6   -8.3
H    -8.4    0.9    3.7
I    -5.9   -3.5   -6.1
P     1.2   -8.8   -2.6
I    -5.3    7.4    1.4
I    -0.7    0.9   -9.2
H     6.3   -4.5    5.1
I     7.2    4.5    3.8
H     1.5   -6.6    6.5
H    -7.6   -4.9   -2.6
I    -7.8    0.5   -5.3
H     7.2   -3.1    5.1
H     0.7   -6.5   -6.7
H     5.9   -7.2   -1.5
H     2.6    3.5    8.4
H    -9.1    1.1    2.1
I    -5.1   -7.2   -3.5
H    -3.1    0.2    8.9
I    -1.6   -2.9    8.8
I    -3.2    4.1    7.9
I     1.0    7.9    5.2
H     1.4   -9.1    2.5
I    -3.7    4.1   -7.8
H    -0.2    4.8   -8.3
P     5.5    6.0   -5.2
H     1.4    9.2   -2.6
H    -1.7    8.0    5.1
P    -7.8   -5.1    2.6
H    -8.7   -2.8   -3.1
N    -2.6    7.5    5.4
H     1.4    5.5    7.8
H     5.5   -7.9    0.7
H     1.4   -5.4   -7.9
H     1.5   -5.5    7.8
H     6.3   -3.5    6.5
H    -6.3    7.1   -2.1
I     3.7    0.0   -9.1
H     0.1   -6.4    7.4
H     1.3    5.6   -7.9
H    -3.8    8.3    3.8
I    -7.8   -3.1    5.2
H     7.2   -6.8   -0.5
N     1.1   -6.4    7.4
H     9.0   -2.8   -3.1
I     5.7    7.7   -2.5
C     9.5    1.1    2.7
H    -2.9    1.8    9.4
H    -3.2   -2.6   -9.2
H     1.0    3.6    9.3
I     8.0    4.4   -4.2
I    -9.6   -2.8    1.2
C     0.8   -6.3   -7.8
H     9.8   -1.0    2.2
H    -1.8    0.7    9.9
H     9.4    0.9    3.7
I     2.8    7.6   -6.1
N    -2.8    0.8    9.7
H    -0.2   -9.9    2.1
I     8.0    0.7    6.3
H     1.8    3.7   -9.3
H    -7.7    6.2   -2.6
P    -7.9    6.0    2.6
I    -6.0   -7.1    4.3
P    -3.4    9.7    0.0
I     5.2    4.1   -7.8
H     4.1    7.8    5.2
H    -2.6    7.5    6.5
I     2.7   -3.7    9.3
H     0.8   10.1    2.2
C    -3.8    8.3    4.9
I     7.4   -2.9   -6.7
C     0.8  -10.0    2.7
H     6.2    6.6    5.1
I    -5.2    0.0   -9.1
H    -0.1   -6.3   -8.3
H     5.1    8.3    3.8
C    -7.4    7.1   -2.1
I     9.7    4.1    0.1
I    -1.5  -10.3   -1.6
H    -4.7    7.8    5.2
I     7.3   -6.6    3.8
I     0.8    0.4   10.5
P    10.0    2.3   -2.6
N    10.3   -0.1    2.1
I    -7.9   -7.0    0.1
I     5.7    4.1    7.9
H    10.1    2.0    2.5
I   -10.5    0.8   -1.6
H     5.8    0.2    8.9
H    10.6    0.1    1.1
I    -1.6    8.1   -6.7
H    -7.8    7.3   -1.1
H    -6.4    3.5   -7.8
P    -3.3   -8.7    5.2
H    10.0   -3.8   -1.1
H    -7.4    4.5    6.5
N    10.0   -2.8   -3.0
H     0.6  -10.2    3.7
H    10.4   -1.9   -2.6
C     5.0    8.3    4.9
I     1.0   -3.3  -10.4
I    -3.1   -7.0    7.9
H    -6.3    3.5    8.4
I    -3.5   -6.9   -7.8
C    -3.5   -3.2  -10.0
H    -3.5   -9.1   -5.2
P    -7.7   -1.4   -7.8
P     5.4    9.7    0.0
H     5.7   -2.6   -9.2
H    -3.3   -4.3   -9.7
P    -7.8   -1.3    7.8
H     1.8  -11.0    1.1
N     6.2    7.5    5.4
P    -3.3    2.3  -10.4
H     2.5   -7.6   -7.8
N     1.4   11.0    2.1
H     5.9    1.8    9.4
I    10.0    0.5   -5.3
H     1.6   11.1    1.1
N     1.6   -7.5   -8.3
I     8.2   -6.7   -4.2
H    -7.8    2.5    7.9
H    -3.8    9.3    5.3
C     1.6   -7.6    8.3
C    10.5   -3.9   -2.1
I     2.7   11.0   -1.2
I    -9.7    4.4   -4.2
H     2.3   10.9    2.6
N     1.6  -11.1    2.1
I    -6.0    7.6   -6.1
H     4.2    0.7   10.7
H   -10.6    4.3   -0.5
N     6.0    0.8    9.7
P    10.0   -5.1    2.6
I    -3.6  -10.6    2.6
H    10.1   -4.9   -2.6
I     2.9  -11.1   -1.2
C    -3.7    0.5   10.9
H    -1.6   -3.1  -11.0
H    10.4   -2.9   -4.0
H    11.3   -0.2    2.6
H     4.4   -3.1  -10.3
I     8.0    8.3    1.2
H     2.7   -7.6    8.4
P     5.5   -8.7    5.2
I    -9.7    0.7    6.3
H    -8.3    4.5   -6.7
H    -4.5   -3.1  -10.3
I     9.9   -3.1    5.2
H     1.2   -8.5    7.9
N    -7.3    3.6   -8.3
H     1.2   -0.1  -11.6
C    -7.4    3.5    8.3
H    -4.7    0.7   10.7
H    -7.4    8.1   -4.0
I    -6.1   -3.7    9.3
I    11.6   -0.0   -1.2
H     6.2    7.5    6.5
H    -7.9    2.7   -8.3
I     5.3   -6.9   -7.8
N    -7.8    8.3   -3.0
H    -3.5   -0.5   11.2
H   -10.5    0.6   -5.3
N    -7.8    4.6    7.4
I     7.2   -2.9    8.8
H     2.5  -11.2    2.6
H    -7.3   -6.6    6.5
H     5.4   -9.1   -5.2
C     5.4   -3.2  -10.0
H    -2.6   10.2   -5.4
P     9.9    6.0    2.6
H     1.1   -8.4   -8.3
H     7.1    8.0    5.1
I     1.2  -10.6   -5.3
N    -2.6   -2.9  -11.2
H     5.1    9.3    5.3
H    -1.5  -10.5   -5.3
H    -2.4  -10.9   -4.0
P    -7.7   -8.8   -2.6
H     1.1   -7.4    9.3
H    -2.7   -1.9  -11.5
H     5.6   -4.3   -9.7
I     9.8   -7.0    0.1
H     1.9   -7.3   -9.3
H   -11.3    0.1   -4.0
I   -10.5    4.5    3.8
I     5.8   -7.0    7.9
H    -7.5   -9.1    2.5
I    -1.7   11.8   -1.6
H    10.0    6.2   -2.6
P     5.6    2.3  -10.4
H   -10.5   -3.1    5.1
H    -7.4    9.2   -2.6
P    -3.4   -5.0   10.5
H    -7.4   -5.5    7.8
C     5.2    0.5   10.9
I    -0.8  -10.3    6.3
C    -3.6  -10.2   -5.6
I     5.3  -10.6    2.6
I     2.6    7.4    9.3
H    -2.6   11.2   -4.0
H    -7.5    5.5    7.8
H    -7.5   -5.4   -7.9
I    -1.8    8.2    8.8
H     7.1    0.7    9.9
C    -8.1    4.7   -7.8
H     1.7   -3.6   11.6
N    -2.4  -10.9   -5.0
H     1.1  -12.0    2.2
H    -3.4    1.2   11.7
P   -12.2   -1.4    0.0
H    -7.1    3.7   -9.3
H    -3.4    6.8   -9.7
H    -7.6    5.6   -7.9
I    -7.9    7.9    5.2
I     8.2    0.9   -9.2
H    -0.4   12.2    2.1
H     9.9    7.3   -1.1
H    11.6   -3.9   -2.1
I    -9.6   -6.7   -4.2
I    -3.8   11.5    2.6
H     8.9    4.6    7.4
H     9.4    4.5   -6.7
N   -11.4    0.1   -5.0
C     0.6   12.1    2.7
H    -8.9    4.6    7.4
H     5.4   -0.5   11.2
P     1.0    9.6   -7.8
H    -8.2   -6.5   -6.7
H    -8.8    8.3   -3.1
N   -11.6    4.5   -0.7
P     0.9    9.7    7.8
H     0.4   11.9    3.7
H   -10.5   -6.8   -0.5
I     2.8    3.6  -11.6
N    -7.7   -6.4    7.4
N    -2.6   11.2   -5.0
H     8.9    8.3   -3.1
P    -3.5    6.0   10.5
H   -11.3   -0.9   -5.4
H    -6.3   -7.6   -7.8
I   -11.9   -3.3   -2.5
I    -0.9    4.6   11.7
H   -11.9    3.9   -1.5
I   -10.3   -2.9   -6.7
H    -3.5  -10.2   -6.6
I    -6.0  -11.1   -1.2
H     4.4  -10.7   -5.2
