         400
 sphere cut out from bulk 
P     0.1   -0.0   -1.5
I    -1.1    2.0    0.6
I    -1.1   -2.2    0.6
I     2.5   -0.1    0.7
P     0.1    0.0    2.7
I    -2.3    0.0   -3.6
I     1.4    2.1   -3.6
I     1.4   -2.1   -3.6
H    -3.5   -2.1    1.7
H    -0.3   -4.5   -0.0
H    -3.6    3.1   -0.7
H     4.3   -1.4    1.8
H     4.5    1.7   -0.7
H    -0.8    4.7    1.8
H    -3.8   -1.3    3.1
H    -4.7    1.7   -0.7
N    -4.2   -1.9    2.4
H    -3.9    2.0   -2.9
H     3.9    3.4   -0.7
H     0.8   -4.7   -2.2
I    -2.4   -0.1    4.7
H     3.8    2.5   -2.9
C    -4.5    2.7   -1.0
N     0.0   -5.4   -0.4
I     1.2   -2.1    4.8
H     0.9    5.0    1.8
H    -5.0   -1.4    1.8
I     1.1    2.2    4.9
C     4.7    2.7   -1.0
H     1.0   -5.5   -0.0
H    -0.9   -5.1   -2.3
P     0.1    0.0   -5.7
C     0.0   -5.4   -1.9
C    -0.1    5.4    2.1
N    -4.5    2.7   -2.5
N     5.0   -1.9    2.4
H     4.0   -3.7    2.2
H     0.3    4.4    4.0
H     3.7   -2.8    3.8
N     4.7    2.7   -2.5
H    -3.9   -1.9   -4.2
H    -0.6   -6.1   -0.0
H     3.8   -2.5   -4.2
C     4.5   -3.1    3.0
H    -4.2    3.6   -2.9
H    -5.3    3.4   -0.7
H     5.4   -1.3    3.1
H    -4.0   -3.6    3.5
H     5.8   -2.1    1.7
H     5.4    2.0   -2.9
N    -0.1    5.3    3.6
C    -4.8   -3.1    3.0
H     5.7    3.1   -0.7
H    -0.3    6.4    1.8
H    -5.5    2.5   -2.9
I    -6.7   -0.1    0.7
H     0.7    4.7   -4.8
H     0.3   -6.4   -2.2
H    -5.3   -3.7    2.2
H     5.1    3.6   -2.9
I     3.5    5.9    0.7
H    -1.0    5.5    4.0
I     3.3   -6.0    0.7
P    -0.1   -0.1    6.9
H    -4.2   -3.6   -4.2
N    -4.5   -2.7   -4.6
H    -1.0    5.0   -4.8
H     5.4   -1.9   -4.2
N     4.7   -2.7   -4.6
H    -5.5   -2.8    3.8
H     0.6    6.1    4.0
H     5.3   -3.6    3.5
H    -5.5   -2.5   -4.2
C    -0.0    5.4   -5.1
H     5.1   -3.6   -4.2
H    -4.2    1.6    6.2
I    -3.5   -5.9   -3.6
H     2.9    2.7    6.6
I    -3.5    5.9   -3.6
H     0.7   -4.7    6.2
I     6.9    0.0   -3.6
H    -3.5   -3.0   -6.4
H    -4.1    3.4    5.9
H     0.1    6.4   -4.8
H     4.5   -1.7   -6.4
H    -1.0   -5.1    6.1
C    -4.5   -2.7   -6.1
I    -1.0   -2.1   -7.7
I    -1.1    2.2   -7.8
H     5.1    1.6    6.2
C     4.7   -2.7   -6.1
I     2.5    0.1   -7.8
H    -4.8   -1.7   -6.4
I    -2.2   -7.9    0.6
C    -4.2    2.6    6.6
I    -5.8    5.9    0.7
H     4.0   -3.4   -6.4
I     6.8   -0.1    4.7
H    -0.4    4.5   -7.0
I    -3.3    5.9    4.9
I     8.1    2.0    0.6
I     8.1   -2.2    0.6
C    -0.0   -5.4    6.5
H     5.1    3.4    5.9
I    -5.9   -6.0    0.7
I    -3.5   -6.0    4.9
I    -2.3    8.2    0.6
N    -0.0    5.4   -6.6
H    -3.5    2.7    7.4
N     3.7    2.8    7.3
C     5.0    2.6    6.6
H     0.3   -6.4    6.1
I    -7.9    2.1   -3.6
I    -7.9   -2.1   -3.6
H     3.5    2.0    8.0
H    -5.3   -3.4   -6.4
H     0.9    5.6   -7.0
I     5.8    5.9   -3.6
I     5.8   -5.9   -3.6
I     2.1    8.0   -3.6
I     2.2   -8.1   -3.6
H     5.7   -3.0   -6.4
P    -9.1   -0.0   -1.5
H    -0.7    6.1   -7.0
P     4.5    8.0   -1.4
I     2.4    0.0    9.0
I    -1.2    2.1    9.1
H     3.6    3.7    7.8
I    -1.2   -2.2    9.1
P     4.6   -8.1   -1.4
P    -4.6   -8.1   -1.4
I     2.1    7.8    4.9
P    -4.7    8.0   -1.4
P     9.4   -0.0   -1.5
H    -6.3    2.7    6.6
H    -0.4   -4.5    8.4
P    -9.1    0.0    2.7
H    -0.3   -4.4   -8.4
N    -5.6    2.8    7.3
I    -8.0   -2.1    4.8
P     4.6    8.0    2.8
P    -4.7    8.0    2.8
N    -0.1   -5.4    8.0
I     5.8   -6.0    4.9
I     5.9    5.9    4.9
P    -4.6   -8.1    2.8
I    -8.1    2.2    4.9
P     4.7   -8.1    2.8
P     9.4    0.0    2.7
H     5.8    2.7    7.4
H     8.4    4.7    1.8
H     3.7    2.1   -8.9
P     0.0   -0.0   -9.9
I     2.2   -8.3    4.9
H    -0.2   -9.7    1.8
H    -8.3    5.0    1.8
H     0.2    9.7   -2.2
H    -8.5   -4.7   -2.2
H    -8.3   -5.5   -0.0
H     9.0   -4.5   -0.0
H    -5.7    2.0    8.0
H    -0.7   10.0   -0.0
H     8.3   -5.1   -2.3
H     1.0   -5.5   -8.4
H     0.9   -5.6    8.4
I    -6.7    0.1   -7.8
H    -5.6    3.7    7.8
N     0.1   -5.3   -8.8
I     3.4    5.9   -7.8
H    -3.3    2.8   -9.4
I     3.4   -6.0   -7.8
H    -0.7   -6.2    8.3
H     3.8    3.8   -9.0
H    -0.6   -6.1   -8.5
H    -9.6   -4.5   -0.0
I   -10.4    2.0    0.6
H     8.7   -6.1   -0.0
H     0.9   10.6   -0.0
I     3.2   10.1    0.7
I   -10.4   -2.2    0.6
I     7.1   -7.9    0.6
N     3.8    2.9   -9.5
H     8.2    5.5    4.0
H    -5.6    2.1   -8.9
N    -9.2   -5.4   -0.4
N     9.3   -5.4   -0.4
P    -9.1    0.0   -5.7
N    -0.1   10.7   -0.4
H    -0.5    4.4    9.8
H    -9.0    4.4    4.0
H     8.2    5.0   -4.8
I     7.0    8.2    0.6
I     3.6  -10.2    0.7
H     0.2   -9.7   -4.8
P     4.6    8.1   -5.6
H     0.7  -10.1    4.0
C     9.2    5.4    2.1
H    -8.5    4.7   -4.8
P    -4.6   -8.0   -5.6
C    -9.2   -5.4   -1.9
C    -0.1   10.7   -1.9
P     4.7   -8.0   -5.6
P    -4.7    8.1   -5.6
C     9.3   -5.4   -1.9
C    -9.3    5.4    2.1
C     0.0  -10.8    2.1
P     9.4    0.0   -5.7
H     3.1    2.8  -10.2
P    -0.0   -0.1   11.1
H     9.0    6.4    1.8
H    -5.5    3.8   -9.0
I     3.2    5.8    9.0
H     9.5    4.4    4.0
N     9.2    5.3    3.6
H    -1.0   11.0   -2.3
H    -9.0   -6.4   -2.2
H     1.0  -11.1    1.8
H   -10.1    4.7    1.8
H     0.8    5.5    9.8
I    -7.0   -8.1   -3.6
I    -7.1    8.0   -3.6
C    -4.1    2.7  -10.2
I    -3.4  -10.2   -3.6
N    -5.4    2.9   -9.5
H    -8.7    6.1    4.0
N    -9.3    5.3    3.6
H    10.1   -4.7   -2.2
I    -6.9    0.0    9.0
I    -2.1   -8.0   -7.7
I    -3.5   10.2   -3.6
I    -2.2    8.1   -7.7
H     4.3   -1.8   10.4
N     0.0  -10.8    3.6
H    -0.9  -10.6    4.0
I     3.3   -6.1    9.1
I    10.6   -2.1   -3.6
I    -5.9    5.9   -7.8
I    10.7    2.1   -3.6
H    -3.7   -3.1   10.4
I    -5.8   -6.0   -7.8
N    -0.2    5.3   10.2
H    10.2    5.0    1.8
I     8.2    2.2   -7.8
H     8.3   -5.1    6.1
P     9.2   -0.1    6.9
H     0.2    9.7    6.1
I     8.2   -2.1   -7.7
H     5.9    2.8   -9.4
P     4.5    8.0    6.9
H    -8.5   -4.7    6.2
H    -4.1    1.7  -10.7
H    -0.8    6.1    9.8
H     0.9   -4.6  -10.6
H    -0.8  -11.4    1.8
C     0.1   -5.3  -10.3
P    -4.7    8.0    6.9
H    -9.5    6.4    1.8
H    -9.9   -6.1   -0.0
I    -7.1    7.8    4.9
H     3.8   -3.5   10.4
H    -4.9   -1.8   10.4
P     4.6   -8.1    6.9
H     0.7   11.4   -2.2
H   -10.2   -5.1   -2.3
P    -4.6   -8.1    6.9
H    10.2   -5.5   -0.0
P    -9.4   -0.1    6.9
H    -0.4   11.7   -0.0
I    10.4    2.2    4.9
H     9.5   -6.4   -2.2
I    -5.7  -10.2    0.7
I    10.5   -2.1    4.8
C     5.2    2.7  -10.2
I    -3.2  -10.2    4.9
I    -3.6   10.1    4.9
I    -6.0   10.1    0.7
I    11.8   -0.1    0.7
C     9.2    5.4   -5.1
H    -0.8   -5.0  -10.7
C     0.0  -10.7   -5.1
C    -9.3    5.4   -5.1
I    -7.0   -8.3    4.9
H     5.2    1.7  -10.7
C     4.6   -2.8   10.7
C    -4.7   -2.8   10.7
H    10.0    4.7   -4.8
H    -9.1    6.4   -4.8
I   -11.6    0.0   -3.6
H    -0.9  -11.1   -4.8
I     1.3    2.3  -11.9
H     5.6   -3.1   10.4
H    -4.0    3.5  -11.0
H     8.9    4.5   -7.0
H    -0.6  -10.0   -7.0
H     9.8    6.1    4.0
I     1.4   -2.0  -12.0
H    -8.3    5.6   -7.0
I     5.7   10.2   -3.6
H    -5.4   -3.5   10.4
I     5.9  -10.2   -3.6
H    -6.2    2.8  -10.2
I    -2.3    0.0  -12.1
I     8.0    2.1    9.1
I    -6.0    5.8    9.0
H     9.4    6.4   -4.8
I    -2.3    8.0    9.1
H   -10.3    5.5    4.0
I     8.1   -2.2    9.1
H     0.4  -11.7    4.0
H     0.4   -6.3  -10.7
I    -2.2   -8.1    9.1
H     0.8  -11.4   -4.8
H   -10.3    5.0   -4.8
I    -6.0   -6.1    9.1
C     9.3   -5.4    6.5
C    -0.1   10.7    6.5
C    -9.3   -5.4    6.5
I     5.7   10.1    4.9
N     9.2    5.4   -6.6
I   -11.7   -0.1    4.7
N     0.1  -10.7   -6.6
H    -9.0   -6.4    6.1
N    -9.3    5.4   -6.6
H    -1.1   11.0    6.1
H     5.3    3.5  -11.0
H    10.0   -4.7    6.2
H     8.6    6.1   -7.0
H     1.0  -10.5   -7.0
H    -9.6    4.5   -7.0
I     6.0  -10.2    4.9
C    -0.2    5.3   11.7
H     0.6    4.6   12.0
H    -0.8    9.9    8.3
H   -10.3   -5.1    6.1
H     8.8   -4.5    8.4
H   -12.7   -2.1    1.7
H    -8.2   -5.5   -8.4
H     9.5   -6.4    6.1
H    -1.2    4.9   12.0
H     0.6   11.5    6.2
I   -10.3   -2.1   -7.7
I   -10.3    2.2   -7.8
H    -8.4   -5.6    8.4
H     9.0   -4.4   -8.4
H    -0.6   10.0   -8.5
H     8.6   10.0   -0.0
I     3.3   10.1   -7.8
H     3.9   12.4    2.2
H   -12.8    3.1   -0.7
I     7.1    8.1   -7.7
I     7.2   -8.0   -7.7
I     3.5  -10.2   -7.8
N    -0.2   10.7    8.0
H     4.0  -12.7   -0.7
N     9.2   -5.4    8.0
N     4.6   -2.8   12.2
H     3.6   -2.6   12.6
H    -4.0   -2.0   12.6
N    -4.7   -2.8   12.2
N    -9.3   -5.4    8.0
H     9.1   -9.7    1.8
H    -9.1    9.7   -2.2
H    -4.1  -12.5   -2.9
I     1.2    2.0   13.2
H     8.6   -6.2    8.3
H     0.8   10.5    8.4
I    -2.5   -0.1   13.2
H    -8.4   10.6   -0.0
H    -9.5   -4.4   -8.4
I     1.2   -2.2   13.3
P    -4.5   -8.0   -9.9
P    -9.2   -0.0   -9.9
H    -3.5  -13.0   -0.7
H   -13.1   -1.3    3.1
H    10.2    5.6   -7.0
P    -4.6    8.1   -9.9
H    -9.7   -4.5    8.4
P     9.3   -0.0   -9.9
H     0.9   10.6   -8.4
H    -4.1   12.5    3.5
H    -0.0    6.3   12.0
P     4.8   -8.0   -9.9
H   -13.1    2.0   -2.9
H    13.0    2.5   -2.9
P     4.7    8.1   -9.9
H    -0.3  -11.6   -7.0
H     0.4    4.5  -12.8
H     8.7   -6.1   -8.5
H    -9.9    6.1   -7.0
H    13.2    3.4   -0.7
H    -9.4   -9.7    1.8
H    -5.4   12.4    2.2
H     9.4    9.7   -2.2
I    -3.3   -5.9  -11.9
I    -3.2    6.0  -11.9
H    13.6   -1.4    1.8
H    -5.2  -12.7   -0.7
H     5.2   -2.0   12.6
H     5.2  -12.5   -2.9
N    -9.2   -5.3   -8.8
