         400
 sphere cut out from bulk 
P    -0.1   -0.6    0.0
I     2.1    1.8   -0.0
I    -2.4    1.5    0.6
I    -0.4   -0.1   -3.2
I     0.5   -0.9    3.2
I     2.2   -2.8   -0.5
I    -2.2   -2.9    0.0
H     0.1    2.7    2.5
H     3.1   -0.1    2.8
H     0.4    2.4   -3.5
H     1.3    3.3   -2.4
H     3.2   -0.7   -2.9
H    -1.0    3.8   -2.0
H    -0.1   -3.7   -2.6
C    -0.1    3.8    2.5
H     0.3    4.3    1.6
H    -2.9   -0.2   -3.6
H    -3.0   -0.7    3.5
N     0.7    3.4   -3.2
H    -4.3   -0.8   -1.8
H    -4.0   -1.5    2.2
H    -1.2    4.0    2.5
H     0.3   -4.7    1.6
H     4.6   -0.8   -1.8
H     0.3   -3.5    3.7
N     4.0    0.2    3.1
H     4.4    0.8    2.4
C    -0.4    4.3   -2.9
C     4.3   -1.0   -2.8
H    -4.5    0.8    2.4
C    -4.0   -1.0    3.2
N    -3.9   -0.0   -3.7
H    -4.1    1.0   -3.4
C    -0.5   -4.7   -2.9
C    -4.7   -1.0   -2.8
H     4.9   -1.5    2.2
H    -1.1   -5.1   -2.0
H     1.2    3.8   -4.0
H    -1.3   -4.9    2.5
H     3.9    0.6    4.0
C    -0.2   -5.1    2.5
N     0.5    4.4    3.7
H     4.4   -2.0   -3.1
H    -4.5   -2.0   -3.1
N    -4.9    0.2    3.1
H     1.5    4.3    3.7
H    -0.0    5.2   -2.6
H    -1.1    4.4   -3.7
N     0.4   -4.5    3.7
P     4.5    3.9    0.0
C     4.9   -1.0    3.2
P    -4.5    3.9    0.0
H     4.9    1.0   -3.4
H    -1.1   -4.6   -3.7
H     0.1    4.0    4.5
H     1.5   -4.7    3.7
H    -4.5   -1.7    3.9
H     4.5   -1.7    3.9
N     5.0   -0.0   -3.7
I    -4.1    3.5   -3.2
H    -4.2   -0.2   -4.7
H     1.3   -5.7   -2.4
P     0.2   -0.4    6.4
P     0.0   -0.7   -6.4
I    -2.2    6.1    0.0
H    -5.0    0.6    4.0
H    -5.7   -0.7   -2.9
N     0.6   -5.6   -3.2
I    -1.5    2.3    5.9
H    -5.9   -0.1    2.8
I     2.2    6.1   -0.5
H     0.4    5.5    3.7
H     4.7   -0.2   -4.7
H     1.2   -5.2   -4.0
P     4.4   -5.0    0.0
H    -0.0   -6.2    2.5
H     0.0   -4.9    4.5
I     6.5    1.5    0.6
I     4.1    4.2    3.2
I     4.8    3.5   -3.2
P    -4.6   -5.0    0.0
H     5.9   -0.7    3.5
I     1.8   -3.3   -5.8
I     4.0   -4.8    3.2
I     2.8    1.1   -6.4
H     6.0   -0.2   -3.6
I    -6.9    1.8   -0.0
I     3.0    1.3    6.4
I    -4.8    4.2    3.2
I    -2.4   -2.2    6.4
I     6.7   -2.9    0.0
I    -2.6   -2.5   -6.4
I    -6.8   -2.8   -0.5
I    -1.7    2.1   -6.8
H     0.3   -6.5   -3.5
I     2.0   -7.2   -0.0
I    -4.9   -4.8    3.2
I    -4.2   -5.5   -3.2
I     2.0   -3.1    6.9
I    -2.5   -7.4    0.6
I     4.7   -5.5   -3.2
I     1.9    5.6   -5.8
P    -0.0    8.4    0.0
H    -7.6    3.3   -2.4
P    -4.4    3.9   -6.4
P    -4.2    4.1    6.4
I     0.6    8.0    3.2
H    -3.9    7.5    2.2
P     4.6    3.9   -6.4
H    -4.4    7.0   -3.1
I    -6.0    1.3    6.4
H     4.5    7.0   -3.1
P     8.9   -0.6    0.0
I    -6.2    1.1   -6.4
P     4.8    4.1    6.4
P    -9.0   -0.6    0.0
H    -4.1    0.1    8.1
I    -1.6   -6.7    5.9
H    -0.1    3.8   -8.2
H     7.9    3.8   -2.0
I    -8.4   -0.9    3.2
P    -4.2   -4.9    6.4
I     6.8    6.1    0.0
H     7.7    4.0    2.5
I    -6.7    6.1   -0.5
I     8.6   -0.1   -3.2
H     5.0    7.5    2.2
P    -4.4   -5.1   -6.4
H    -7.4    4.3    3.7
I     2.1    5.8    6.9
I     6.3   -2.5   -6.4
P     4.7   -4.9    6.4
H     3.3    8.2   -2.9
P     4.5   -5.1   -6.4
H    -4.4    7.2    3.9
I     6.5   -2.2    6.4
H    -4.3    8.2   -1.8
I    -0.3    8.8   -3.2
H     4.5    7.2    3.9
C    -4.0    7.9    3.2
H    -3.0    8.2    3.5
H     4.9    0.1    8.1
I    -2.6    6.5   -6.4
N    -8.2    3.4   -3.2
H     7.7   -4.9    2.5
H    -7.7    3.8   -4.0
H     3.8    0.4   -8.7
H    -2.7   -0.0    9.1
C     4.3    8.0   -2.8
H     4.4   -8.1    2.4
I    -0.2    0.1    9.5
P    -0.1   -9.5    0.0
H    -7.5   -4.7    3.7
H    -8.6    2.4   -3.5
I    -2.4    6.7    6.4
H     4.7    8.2   -1.8
I     0.3   -1.1   -9.5
H    -8.9    2.7    2.5
H    -4.6   -8.1    2.4
H     7.9   -5.1   -2.0
H    -4.1   -8.0   -3.4
C    -4.6    8.0   -2.8
I    -0.4   -9.1   -3.2
H     0.5    2.6    9.3
H    -0.1   -5.2   -8.2
H    -8.6    4.3    1.6
H     1.4    4.0    8.7
H     9.0    2.7    2.5
H     7.9    4.4   -3.7
I     7.4    2.3    5.9
I    -7.1   -3.3   -5.8
H     7.8   -4.6   -3.7
N    -3.7    0.2    9.1
H     3.1    8.9    2.8
H     0.1   -3.7   -9.1
H    -3.2   -0.9   -9.3
I     6.4   -7.4    0.6
H    -7.7   -5.7   -2.4
I    -9.3   -0.1   -3.2
I    -1.8   -6.9   -6.8
H    -2.8    8.7   -3.6
C     5.0    7.9    3.2
C     8.8    3.8    2.5
C     8.5    4.3   -2.9
H     8.8   -3.7   -2.6
H     3.0   -9.0    2.8
H     4.8   -8.0   -3.4
H    -8.7   -4.7    1.6
I    -6.9   -7.2   -0.0
H    -8.6   -3.5    3.7
N     0.3    4.2   -9.1
H     4.3   -1.9   -8.8
I     9.4   -0.9    3.2
H     1.4    4.0   -9.1
H     3.9   -8.3    4.0
H    -1.0   -4.4    9.0
C     8.4   -4.7   -2.9
H    -9.0   -3.7   -2.6
N     4.0   -8.8    3.1
C    -9.0    3.8    2.5
H    -0.9    4.6    9.0
H    -5.2    0.4   -8.7
H     1.3   -5.0    8.7
H    -7.8   -5.2   -4.0
H    -3.9    1.2    9.3
H    -4.6   -1.9   -8.8
I     7.2    2.1   -6.8
N    -8.4    4.4    3.7
H     9.3    2.4   -3.5
N     0.9    3.6    9.5
N     0.3   -4.8   -9.1
I    -6.9   -3.1    6.9
N    -8.5   -4.5    3.7
H    -3.0   -9.2   -3.6
H     9.3    4.3    1.6
H     2.9   -0.3   -9.9
I     2.9   -7.6    6.4
N     3.8   -0.0   -9.6
N    -3.9    8.9   -3.7
I     0.4   -9.9    3.2
H    -5.7    8.2   -2.9
H     1.3   -4.9   -9.1
N     5.2    0.2    9.1
C     8.8   -5.1    2.5
H     3.4   -0.5    9.9
H     9.2   -4.7    1.6
P     0.1    8.3   -6.4
I     2.7   -7.9   -6.4
N     4.1    9.1    3.1
H     0.2    5.2   -9.1
N    -8.3   -5.6   -3.2
N    -4.0   -9.0   -3.7
C    -4.2   -1.3   -9.6
H    -5.1   -8.3    4.0
H     9.3   -3.5    3.7
N    -5.0   -8.8    3.1
H     3.1   -9.7   -2.9
H    -0.1    2.5  -10.3
P     0.3    8.5    6.4
H     8.9    5.2   -2.6
H     5.0    1.2    9.3
C    -9.4    4.3   -2.9
N     9.6    3.4   -3.2
H    -9.0    5.2   -2.6
H    -8.8    4.0    4.5
H    -4.3   -1.8    9.7
I    -7.0    5.6   -5.8
H    -3.1   -9.7    3.5
C     4.7   -1.3   -9.6
H     0.1   -3.5   10.2
I    -2.4   10.5    0.6
C    -9.1   -5.1    2.5
H     6.0    8.2    3.5
H    -8.5    5.5    3.7
N    -4.8    9.1    3.1
H    -4.2    8.8   -4.7
P    -8.7   -0.4    6.4
H    -9.9    3.8   -2.0
H    -4.4   -9.7   -1.8
H     4.6   -1.8    9.7
C    -0.3   -4.5    9.9
C    -0.3    4.5    9.9
H     9.0    4.0    4.5
H     4.5   -9.7   -1.8
N     5.1    8.9   -3.7
C    -0.3    3.6  -10.3
N    -5.1   -0.0   -9.6
N     4.9   -9.0   -3.7
H     5.7   -0.9   -9.3
C    -9.4   -4.7   -2.9
C     4.4   -0.7   10.0
I     2.1   10.7   -0.0
C    -4.5   -0.7   10.0
P    -8.9   -0.7   -6.4
H    -5.8    8.9    2.8
N     0.8   -5.4    9.5
I    -3.9    3.7    9.6
I     3.9    4.0   -9.5
H     1.5    3.5   10.4
H    -1.4    3.8  -10.3
H     6.2   -0.0    9.1
H    10.3    3.3   -2.4
H    -4.4    9.8    2.4
P     9.0   -0.7   -6.4
H     4.8    8.8   -4.7
N     9.4   -4.5    3.7
H     4.5    9.8    2.4
N     9.4    4.4    3.7
I     6.4    6.5   -6.4
C     4.2   -9.9   -2.8
H    -4.3   -9.1   -4.7
H     4.0    9.6    4.0
H    -8.9   -4.9    4.5
I    11.0    1.8   -0.0
H     8.9   -6.2    2.5
H    -8.9   -6.2    2.5
H   -10.1    4.0    2.5
P     9.2   -0.4    6.4
H     4.2    0.6  -10.3
H    -5.9   -9.0    2.8
H     9.0   -4.9    4.5
H    -4.0    9.9   -3.4
H     0.5   -6.3    9.3
H     4.6   -9.1   -4.7
C    -4.1  -10.0    3.2
H     6.1    8.7   -3.6
C    -4.7   -9.9   -2.8
H    -5.6   -0.5    9.9
P     0.2   -9.4    6.4
H    -4.7    0.6  -10.3
I     6.6    6.7    6.4
I    -6.9    5.8    6.9
H    -8.6   -6.5   -3.5
I     3.8   -5.0   -9.5
I     5.0    3.7    9.6
H     9.3    5.5    3.7
H   -10.0   -5.1   -2.0
H    -4.1  -10.4    2.2
I    -5.0    4.0   -9.5
I    11.1   -2.8   -0.5
H    -4.2   -1.7  -10.6
H    -0.8    4.0   10.7
I   -11.4    1.5    0.6
H    -4.9    9.6    4.0
P    -0.0   -9.6   -6.4
H     6.0   -9.2   -3.6
H     0.2    5.5   10.2
I     7.3   -6.7    5.9
N     9.6   -5.6   -3.2
C     4.8  -10.0    3.2
H   -10.0    4.4   -3.7
I   -11.2   -2.9    0.0
H    10.2    3.8   -4.0
H    -1.4   -5.2  -10.3
H     4.9    9.9   -3.4
H   -10.2   -4.9    2.5
C    -0.4   -5.4  -10.3
I    -4.0   -5.3    9.6
I    -6.0   -7.6    6.4
H    -6.1   -0.3   -9.9
H    -5.8   -9.7   -2.9
H   -10.1   -4.6   -3.7
H     4.8   -1.7  -10.6
H     4.9  -10.4    2.2
H    -4.1   -0.6   11.0
H     1.4   -5.5   10.4
H     5.8   -9.7    3.5
H    -0.9   -4.9   10.7
H     9.2   -6.5   -3.5
I    -5.1   -5.0   -9.5
I    -6.2   -7.9   -6.4
H     0.2    4.0  -11.2
H     0.4   11.4   -3.5
H    10.5    4.3    3.7
H    10.2   -5.7   -2.4
H     0.1   11.7    2.5
I     2.1  -11.8   -0.5
I     4.9   -5.3    9.6
H     4.8   -0.6   11.0
H    10.4   -4.7    3.7
I    -8.4    8.0    3.2
H    10.1   -5.2   -4.0
I     7.2   -6.9   -6.8
I    -2.3  -11.8    0.0
H     4.4    7.0   -8.8
H    -0.2   -6.4  -10.3
H    -4.6    7.0   -8.8
H     4.4  -10.9   -3.1
H     4.4  -10.7    3.9
H     0.1   -4.9  -11.2
H    -7.5    4.0    8.7
I   -10.5    2.3    5.9
H    -4.5  -10.7    3.9
I     2.8   10.1   -6.4
P     8.9    8.4    0.0
P    -8.9    8.4    0.0
H    -4.6  -10.9   -3.1
I     0.4    7.8   -9.5
H    12.0   -0.1    2.8
I     6.6   10.5    0.6
H   -11.8   -0.2   -3.6
I     3.0   10.3    6.4
H    12.1   -0.7   -2.9
H   -12.0   -0.7    3.5
H    -7.6    4.0   -9.1
I    -2.6    1.3  -12.2
H     1.4   12.2   -2.4
H    -7.6   -5.0    8.7
H    -3.1    8.0   -9.3
H     8.9    3.8   -8.2
I   -11.1    6.1    0.0
I    10.8   -3.3   -5.8
I    -6.8   10.7   -0.0
H    -4.1   -8.9    8.1
H    -4.0    9.0    8.1
I     8.6    8.8   -3.2
N     0.8   12.3   -3.2
H     3.7   -8.5   -8.7
I    11.2    6.1   -0.5
P     0.1   -0.4   12.7
