         400
 sphere cut out from bulk 
H     0.1   -0.9    1.3
I     1.4   -1.0   -1.3
N    -0.5   -1.3    2.0
H    -1.2   -1.9    1.5
H    -1.9    0.3    2.2
I     0.6    2.9    0.9
C    -1.2   -0.3    2.9
I    -3.0   -0.2   -1.0
H     0.1   -1.9    2.6
H    -0.5    0.3    3.3
H    -1.5    2.9   -1.1
P     3.3    1.3    0.0
P    -1.2   -2.3   -2.7
H    -1.8   -0.8    3.6
I     3.2   -0.4    2.6
H    -1.1    2.2   -3.4
H     3.3   -2.8    0.0
N    -1.8    3.5   -1.9
H     0.1    3.4   -2.9
I    -1.5   -4.3   -0.1
C    -1.0    3.2   -3.1
H    -2.8    3.3   -2.1
H     2.9   -0.1   -3.9
H     1.8   -4.6   -0.4
H    -1.7    4.5   -1.6
N     3.6   -3.7    0.4
H     3.3   -3.8    1.3
I    -1.1   -0.4   -5.2
I    -3.8    3.4    1.6
I     3.5    3.1   -2.7
C     2.9   -4.7   -0.5
I     1.4   -4.3    3.4
H    -1.3    3.9   -3.9
P    -1.1    5.0    2.6
H     2.0   -0.6   -5.3
C     2.9   -0.1   -4.9
H    -4.3   -3.8    0.3
P    -5.6    1.3    0.0
H     3.2   -4.6   -1.5
H     4.6   -3.8    0.3
I     5.9   -0.2   -1.0
H     2.9    0.9   -5.3
I     0.7   -4.5   -4.1
H     3.3    5.3   -0.2
H    -5.6   -2.8    0.0
I    -5.7   -0.4    2.6
I    -1.1    3.2    5.3
H     2.0    3.0    5.1
I     5.1    3.4    1.6
I    -3.1   -3.9    4.0
H     4.2    2.9    3.9
H    -3.9   -0.3   -5.1
I     0.7   -0.9    6.4
N    -5.3   -3.7    0.4
H     3.2   -5.7   -0.2
I    -3.8   -3.8   -3.8
P     3.3   -2.3    5.2
P    -1.2   -6.1    2.6
H     1.9    6.4   -0.4
H    -4.7    2.9    3.9
I    -5.4    3.1   -2.7
H     4.2   -1.7   -5.1
N     4.1   -0.8   -5.5
I    -1.4    6.8   -0.1
H    -5.6   -3.8    1.3
C     3.0    6.3   -0.5
H    -1.8   -6.6   -1.6
H     4.2    1.9    5.3
N     4.1    2.9    5.0
H    -6.0   -0.1   -3.9
C     2.9    3.5    5.5
H     5.0   -0.3   -5.1
H    -4.7   -1.7   -5.1
H     6.1    3.3   -2.1
N    -4.8   -0.8   -5.5
H    -4.7    1.9    5.3
H    -3.9    3.3    5.3
H     7.0    0.3    2.2
H     3.3    6.4   -1.5
I     5.1   -3.8   -3.8
N    -4.7    2.9    5.0
H     2.9    4.6    5.1
H    -5.7   -4.6   -1.5
H    -1.3   -3.5    6.5
I    -3.8   -0.1    6.6
I    -7.4   -1.0   -1.3
C    -6.0   -4.7   -0.5
I     1.5    6.7    3.4
I     0.8    6.5   -4.1
H    -5.6    5.3   -0.2
H     4.2   -0.7   -6.5
C    -6.0   -0.1   -4.9
I     1.4    3.1   -7.0
H    -0.5   -3.3   -7.1
I    -3.0    3.5   -6.4
H     7.0   -0.8    3.6
P    -5.6   -2.3    5.2
P    -1.1    1.3    7.8
N    -1.9   -7.5   -1.9
H     7.4    2.9   -1.1
H     5.0    3.3    5.3
H     2.9    3.5    6.6
P     3.4    5.1   -5.3
H     3.4    7.2    1.3
H     7.7   -1.9    1.5
H    -6.0    0.9   -5.3
I     5.8   -3.9    4.0
P    -1.1    1.4   -7.9
H    -4.7   -0.7   -6.5
H    -5.7   -5.7   -0.2
H    -0.0   -7.6   -2.9
N     7.1    3.5   -1.9
C     7.6   -0.3    2.9
N     3.7    7.3    0.4
H    -1.4   -7.1   -3.9
I     0.5   -8.1    0.9
H    -4.2    7.2    0.3
H    -1.9   -4.4   -6.8
I     5.1   -0.1    6.6
H    -1.6   -8.2   -1.1
C    -1.0   -7.8   -3.1
H    -7.1   -4.6   -0.4
P     7.7   -2.3   -2.7
C    -1.0   -4.2    7.3
H    -2.9   -7.7   -2.1
I     7.3   -4.3   -0.1
P     3.3   -5.9   -5.3
H     0.0   -4.0    7.6
H     4.7    7.2    0.3
H     7.2    4.5   -1.6
C    -5.9    6.3   -0.5
C    -1.2   -3.9   -7.6
H    -5.6    6.4   -1.5
I    -3.9   -7.6    1.6
N     8.3   -1.3    2.0
H    -6.9   -0.6   -5.3
I    -3.0    7.1    4.0
H     2.8   -6.5    5.1
H     7.8    2.2   -3.4
I    -8.3    2.9    0.9
H    -1.2   -5.2    7.0
C    -6.0    3.5    5.5
H     3.4    8.2    0.0
H    -8.8   -0.9    1.3
N    -5.2    7.3    0.4
I     3.4   -7.9   -2.7
I    -3.7    7.3   -3.8
H    -6.8    3.0    5.1
H     8.4    0.3    3.3
H     8.9   -0.9    1.3
H    -1.9   -3.3   -8.2
H    -6.0    4.6    5.1
C     7.9    3.2   -3.1
H    -5.5    7.2    1.3
P    -5.5    5.1   -5.3
P    -1.1    8.7   -2.7
H    -1.1    5.8    7.0
I     5.0   -7.6    1.6
H    -1.1    9.1    1.5
I    -7.5   -4.3    3.4
I     3.2   -4.0   -7.8
I     7.8   -0.4   -5.2
H    -8.8   -1.9    2.6
H     7.6    3.9   -3.9
I     5.9    3.5   -6.4
H     0.2    9.1    2.6
I    -1.2   -7.8    5.3
H    -7.0    6.4   -0.4
I     3.4   -4.3    7.8
H     3.2   -1.0    8.9
H    -1.8   -2.9    8.9
H     8.9   -1.9    2.6
H    -1.2   -8.8   -3.4
H    -5.9    3.5    6.6
H     0.2    5.5   -7.8
P     7.8    5.0    2.6
N    -1.9   -3.9    8.5
I     0.6   -0.7   -9.6
H     0.1   -5.5   -7.8
I    -3.8   -0.2   -8.9
I     1.5    2.6    9.2
H    -1.8    6.6   -6.8
P    -5.6   -5.9   -5.3
N    -9.4   -1.3    2.0
C     2.8   -7.5    5.5
I     5.2    7.3   -3.8
H    -2.9   -4.1    8.3
H     1.9   -8.0    5.1
H     7.1   -6.6   -1.6
N    -0.6   -4.9   -8.4
H    -8.8    3.4   -2.9
N    -0.4    9.7    2.0
H    -5.5    8.2    0.0
H    -9.3    0.3    3.3
H     4.1   -8.2    3.9
I     9.5    2.9    0.9
I     7.8    3.2    5.3
H     6.0   -7.7   -2.1
I    -5.5   -7.9   -2.7
H     9.0    3.4   -2.9
I     7.4    6.8   -0.1
H    -1.2    7.5    6.5
C    -0.9    6.9    7.3
P     7.7   -6.1    2.6
I     5.9    7.1    4.0
H    -4.0   -7.7    5.3
P     3.2   -9.7    0.0
H     0.0   -4.5   -9.2
I     1.5   10.0   -1.3
I     5.1   -0.2   -8.9
H     0.2   10.1    1.3
I    -8.2   -4.5   -4.1
H    -4.8   -8.2    3.9
H    -6.1   -6.5    5.1
H     1.8   -1.0   10.0
I    -3.1   -7.5   -6.4
H     3.4    3.6   -9.1
H     0.1    7.0    7.6
N     4.0   -8.2    5.0
H   -10.1   -1.9    1.5
H     2.8   -7.5    6.6
N    -0.5    6.1   -8.4
C     2.9   -1.1    9.9
I    -8.2   -0.9    6.4
I    -5.5   -4.3    7.8
I    -3.0    3.4    9.4
I    10.3   -1.0   -1.3
N     7.0   -7.5   -1.9
I    -5.7   -4.0   -7.8
C    -1.1    7.1   -7.6
H    -1.6   -4.5    9.3
I    -1.5   -0.7   10.4
C   -10.1   -0.3    2.9
H    -0.4    7.7   -7.1
H    -1.1    5.5   -8.9
I    -7.4    6.7    3.4
H     4.9   -7.7    5.3
H     7.5   -3.5    6.5
H    -1.2   -5.6   -8.9
H    -5.7   -1.0    8.9
P   -10.0   -2.3   -2.7
P     3.4    8.7    5.2
I     1.4   -7.9   -7.0
I    -7.4    3.1   -7.0
N    -4.8   -8.2    5.0
H     7.0   -4.4   -6.8
H   -10.0    2.2   -3.4
C    -9.8    3.2   -3.1
H   -10.4    2.9   -1.1
I     3.5    6.7    7.8
H    -1.7   10.2    3.6
H   -10.7    0.3    2.2
I     3.3    7.0   -7.8
H     3.2   -2.1   10.3
H     7.3   -8.2   -1.1
H     3.3    0.8   10.5
H     7.5   -7.1   -3.9
P     7.7    1.3    7.8
H     6.0   -4.1    8.3
I    -1.4    3.1  -10.5
C    -6.1   -7.5    5.5
H    -2.0  -10.7    2.2
P     7.7    1.4   -7.9
C    -1.1   10.7    2.9
I    -8.1    6.5   -4.1
P     3.2   -2.3  -10.4
H    -2.8    6.9    8.3
H     3.3    1.7  -10.6
H    -0.6  -10.7    3.3
H    -5.5    3.6   -9.1
I   -10.0   -0.4   -5.2
I   -10.4   -4.3   -0.1
H     0.1    6.5   -9.2
I    -2.9   10.8   -1.0
N    -1.8    7.1    8.5
P    -5.7   -9.7    0.0
H     7.0   -3.3   -8.2
I     9.5   -4.5   -4.1
H   -10.7   -0.8    3.6
H     4.1   -9.1    5.3
N     3.6    3.7  -10.1
H     1.9    2.8  -10.8
N     3.6   -0.1   10.8
N   -10.7    3.5   -1.9
I     3.3   10.6    2.6
H    -1.8    7.7   -8.2
H     4.3    9.3   -5.1
H    -1.5    6.5    9.3
I     5.8   -7.5   -6.4
P   -10.0    5.0    2.6
C     7.6   -3.9   -7.6
C     7.8   -7.8   -3.1
H     8.4   -3.3   -7.1
P    -5.5    8.7    5.2
C     7.8   -4.2    7.3
I     9.6   -0.9    6.4
H    -4.3   -0.2   10.7
H    -4.6    9.3   -5.1
H   -10.1    3.9   -3.9
H   -10.6    4.5   -1.6
H    -4.2    3.6  -10.2
I    -5.4    6.7    7.8
H    -4.8   -9.1    5.3
I     5.9    3.4    9.4
I    10.2   -4.3    3.4
H    10.7   -4.6   -0.4
H     7.7   -5.2    7.0
C     3.0    2.7  -10.9
C    -6.0   -1.1    9.9
H    -1.8   11.3    2.2
I    -3.1  -11.2   -1.0
H    -6.0   -7.5    6.6
H     4.6   -0.2   10.7
I    -8.4   -8.1    0.9
H    -1.5   -0.7  -11.6
I    -9.9    3.2    5.3
H     2.8  -10.1   -5.3
N     7.0   -3.9    8.5
C    -1.3  -11.3    2.9
H     7.1   -2.9    8.9
H     4.7    3.6  -10.2
H    -6.9   -8.0    5.1
H    -0.4   11.3    3.3
H     2.1   10.4   -5.3
I    -5.6    7.0   -7.8
H     7.1    6.6   -6.8
H     3.4    4.6  -10.4
I    -1.0   10.7   -5.2
I   -11.8   -0.2   -1.0
H    -5.6    0.8   10.5
H    -5.7   -2.1   10.3
N    -5.2    3.7  -10.1
H     3.0   10.9   -3.9
I     0.8   10.1    6.4
H    -0.0  -11.9    1.3
H     7.8    5.8    7.0
P     7.8    8.7   -2.7
P     3.3    4.9   10.5
N    -5.3   -0.1   10.8
H     8.9   -7.6   -2.9
H    -8.9   -7.6   -2.9
H     7.8    9.1    1.5
P   -10.1   -6.1    2.6
H     0.1    2.7   11.7
P    -5.6   -2.3  -10.4
I    -7.4    2.6    9.2
H     2.8  -11.1   -3.9
H    -1.7    8.1    8.9
H    -5.6    1.7  -10.6
H    10.9   -0.6   -5.3
I     7.7   -7.8    5.3
I     3.1  -11.4    2.6
H    -1.2    1.7   12.0
H    -1.7    0.9  -12.0
I     1.3  -12.0   -1.3
H     7.7   -8.8   -3.4
H     3.3   -7.4   -9.1
H    -9.4   -3.3   -7.1
P    12.1    1.3    0.0
I     0.5   -4.5   11.3
H     3.3   -0.2   11.8
I    -5.6   10.6    2.6
I     9.6    6.5   -4.1
H   -11.7    3.3   -2.1
I   -10.3    6.8   -0.1
H    -7.1   -1.0   10.0
H    -8.9   -4.0    7.6
H     8.9   -4.0    7.6
C     3.0   10.9   -4.9
N     4.2   10.3   -5.5
I    12.1   -0.4    2.6
H    11.8   -0.1   -3.9
I     6.0   10.8   -1.0
H    10.9    3.0    5.1
H     6.1    6.9    8.3
I     9.4   -8.1    0.9
I    -3.0   -3.8  -11.5
C     2.8  -11.1   -4.9
I    -7.3   10.0   -1.3
I    -3.1   -7.6    9.4
H    12.2   -2.8    0.0
N    -1.8   -0.1  -12.4
H    -3.8   10.7   -5.1
P     3.2   -6.1   10.5
P    -1.2   -9.7   -7.9
H    -1.9  -11.8    3.6
N    -4.7   10.3   -5.5
I     1.4   -8.4    9.2
P    -1.2   -9.7    7.8
N    -0.6  -12.3    2.0
H    10.8    6.4   -0.4
I    -1.2  -11.4   -5.2
H     7.6    7.5    6.5
H   -10.6   -6.6   -1.6
H   -10.2   -3.5    6.5
H     3.3   -6.4  -10.4
H    -5.5    4.6  -10.4
I    -8.3   -0.7   -9.6
I     5.8  -11.2   -1.0
I     1.4   -4.6  -11.7
