         400
 sphere cut out from bulk 
P    -0.2   -2.0    0.3
I    -0.2    0.2   -2.1
I     2.3   -0.1    1.4
I    -2.7   -0.1    1.3
P     2.3    2.1   -1.1
P    -2.7    2.1   -1.1
I    -0.2    3.7    0.2
I     2.2   -3.7   -1.0
H     2.3    0.1    3.8
I    -2.6   -3.6   -1.0
I    -0.2   -3.6    3.0
H    -1.9   -0.7    4.3
H    -0.9    0.3   -5.0
I     4.7    0.2   -2.1
P     4.7   -2.1    0.2
N     2.3    0.1    4.8
H     1.4    0.7    5.1
H    -0.0   -3.5   -4.0
H     1.4    4.0    3.3
H    -1.8    3.9    3.5
H     1.3   -1.8    5.1
P    -5.1   -2.1    0.2
I    -5.1    0.2   -2.1
H     2.3    4.8    1.9
H    -2.6    4.6    2.0
H    -1.1   -5.0   -2.4
H     0.5    2.3   -5.2
C    -2.6   -1.1    4.9
I     2.2    3.6   -3.8
H     0.7   -0.1   -5.7
H    -3.6   -1.1    4.4
I    -2.5    3.6   -3.8
C    -0.3    0.4   -5.9
C     2.3    4.6    3.0
I     4.7    3.7    0.3
C     2.2   -1.2    5.4
H     3.1    0.7    5.1
H     0.5   -5.4   -2.6
C    -2.7    4.5    3.1
H    -2.4   -2.1    5.2
H     3.2    4.0    3.3
I    -0.2    2.4    5.7
H     3.1   -1.8    5.1
N    -0.4   -5.4   -3.1
C    -0.3   -4.6   -4.3
I    -5.1    3.7    0.3
N     0.0    1.9   -6.0
H    -3.6    3.9    3.5
H    -0.7    5.4   -3.3
H     1.4   -5.3    3.4
H    -4.5    0.6   -4.9
I     4.7   -3.6    3.0
H    -0.8    2.4   -6.1
H    -1.8   -5.4    3.4
H    -3.1    0.6    5.9
H    -1.3   -4.5   -4.8
N    -2.8   -0.3    6.2
H    -0.7    0.0   -6.8
H     0.5    6.4   -2.6
H     4.0    1.6   -5.4
I    -5.1   -3.6    3.0
H    -1.9   -0.3    6.7
H     2.2   -1.1    6.5
H     4.4   -4.7   -2.7
H     3.1   -5.3    3.4
H     0.4   -5.0   -5.0
N    -0.4    6.4   -3.1
H    -4.2   -4.2   -4.0
H     0.7    2.0   -6.8
H    -0.7   -6.4   -3.3
I     2.3   -2.7   -6.3
H     5.4    0.6   -4.9
H    -3.5   -5.4    3.4
H    -1.1    6.8   -2.4
I     7.2   -0.1    1.3
N     2.3   -5.9    3.7
N     2.3    5.9    3.7
N    -2.7    5.8    3.7
I    -2.7   -2.4   -6.5
H     3.9   -0.7   -6.3
H     1.4    6.5    3.4
H    -1.8    6.4    3.4
N    -2.7   -6.0    3.7
P     7.2    2.1   -1.1
H     3.5   -4.5   -5.0
C     4.9    1.1   -5.7
C    -4.9    1.1   -5.7
H     2.3   -7.1    1.9
H    -5.4   -4.7   -2.7
H    -3.5   -0.8    6.8
I    -7.6   -0.1    1.4
H     6.3   -1.1    4.4
H    -4.3    1.8   -6.2
I     4.8    2.4    5.7
H     2.3    5.8    4.8
C    -4.9   -5.0   -3.6
P    -7.6    2.1   -1.1
C     5.0   -5.0   -3.6
H     3.1    6.5    3.4
H    -2.7    5.8    4.8
H     2.3   -6.0    4.8
H    -2.7   -7.2    2.0
H     3.4    5.7   -4.4
I    -5.1    2.4    5.7
H    -4.3    5.9   -3.4
H    -4.3   -5.9   -3.4
H    -3.5    6.4    3.4
H     5.7   -4.2   -4.0
N     4.6    0.0   -6.7
H    -2.7   -6.0    4.8
I    -0.2   -8.1    0.2
I     7.2   -3.6   -1.0
C     2.3   -7.2    3.0
H    -5.9    1.6   -5.4
N     4.0   -5.3   -4.7
H     6.3    3.9    3.5
H    -4.4   -0.5   -6.9
H     3.4   -6.1   -4.4
C    -2.7   -7.3    3.1
C    -0.3    7.2   -4.3
H     0.4    6.8   -5.0
H    -6.7    4.0    3.3
H    -7.6    0.1    3.8
I     2.2    8.1   -1.0
N    -5.3    0.0   -6.7
H    -6.8    0.7    5.1
H     5.6    1.8   -6.2
I    -7.6   -3.7   -1.0
I    -0.3   -2.0    8.3
H     1.4   -7.8    3.3
H    -6.7   -1.8    5.1
I    -2.6    8.2   -1.0
H     4.2    0.4   -7.6
H    -5.9   -0.7   -6.3
H     7.2    4.6    2.0
H    -1.8   -7.9    3.5
I    -0.2    8.3    3.0
C     7.2   -1.1    4.9
H     5.6    5.9   -3.4
H     5.6   -5.9   -3.4
H    -1.3    7.3   -4.8
H     5.5   -0.5   -6.9
H     4.4    7.1   -2.7
N     4.1    6.5   -4.7
I     7.3    3.6   -3.8
H     6.7    0.6    5.9
N    -7.6    0.1    4.8
H     3.2   -7.8    3.3
H     6.4   -5.4    3.4
C     7.2    4.5    3.1
C    -4.8    6.8   -3.6
H     8.0   -0.7    4.3
H     4.5   -5.6   -5.6
H    -7.6    4.8    1.9
C     5.0    6.8   -3.6
N    -5.8   -5.3   -4.7
H    -0.0    8.3   -4.0
I     2.2   -8.2   -3.8
H    -6.4   -4.5   -5.0
H    -6.8   -5.3    3.4
H     6.3   -0.8    6.8
I    -7.7    3.6   -3.8
H    -3.6   -7.9    3.5
P    -0.2    4.0    8.4
H    -5.4    7.1   -2.7
N     7.0   -0.3    6.2
C    -7.6    4.6    3.0
H     7.5   -2.1    5.2
I    -2.6   -8.2   -3.8
I     2.3    2.0   -8.9
I     4.7   -8.2    0.3
C    -7.6   -1.2    5.4
H    -5.7    0.4   -7.6
H     4.6    6.2   -5.6
H     3.5    7.3   -5.0
H    -4.2    7.6   -4.0
H    -5.3   -5.6   -5.6
I    -2.6    2.1   -9.0
I     2.3   -5.9    7.2
I     2.3    5.9    7.2
H    -6.4    5.7   -4.4
I    -5.1   -8.2    0.3
H     8.1    3.9    3.5
H     6.4    6.4    3.4
I     4.7   -2.1    8.2
I    -2.7    5.9    7.3
I    -2.7   -5.9    7.3
P    -0.2    9.8    0.3
H    -5.3    6.2   -5.6
P     9.6   -2.0    0.3
N    -5.8    6.5   -4.7
H    -8.4    0.7    5.1
I     9.7    0.2   -2.1
I    -5.1   -2.1    8.2
H    -6.4   -6.1   -4.4
I    -0.2    5.8   -8.1
I     4.7    8.2    3.0
H    -8.5    4.0    3.3
I     7.2   -2.4   -6.5
H    -6.8    6.5    3.4
N     7.2    5.8    3.7
P     2.3   -9.7   -1.1
I    -0.2   -6.0   -8.1
N     7.2   -6.0    3.7
H    -8.5   -1.8    5.1
H    -7.6   -1.1    6.5
P    -2.7   -9.7   -1.1
I    -5.1    8.2    3.0
I    -7.5   -2.7   -6.3
H     8.9    0.3   -5.0
P     2.3   -4.1   -9.1
I   -10.0    0.2   -2.1
H     8.0   -5.4    3.4
P   -10.1   -2.0    0.3
H     5.7    7.6   -4.0
N    -7.6    5.9    3.7
N    -7.6   -5.9    3.7
P    -2.6   -4.0   -9.1
I     9.7    3.7    0.2
I     2.3    2.5    9.8
H     8.7   -5.0   -2.4
H     7.9   -0.3    6.7
P     4.7    4.0    8.4
H     7.2    5.8    4.8
H     7.2   -7.2    2.0
I    -2.7    2.5    9.8
P     2.3   -3.6    9.6
H     7.2   -6.0    4.8
H    -8.4   -5.3    3.4
H    -7.6   -7.1    1.9
P    -5.1    4.0    8.4
H     6.3   -7.9    3.5
P    -2.7   -3.6    9.7
H    -7.6    5.8    4.8
I   -10.0    3.7    0.2
I     9.6   -3.6    3.0
C     7.2   -7.3    3.1
H    -7.6   -6.0    4.8
H    -6.7   -7.8    3.3
H    -9.2   -0.1   -5.7
H     8.5   -4.5   -4.8
P     4.7    9.7    0.2
H     8.0    6.4    3.4
I    -0.1   -2.6  -10.5
H     0.5   -9.5   -5.2
H    -6.4    7.3   -5.0
C    -7.6   -7.2    3.0
H    -9.3    2.3   -5.2
I     7.2    8.2   -1.0
P    -0.2    3.5  -10.4
P    -5.1    9.7    0.2
I    -0.2   -9.4    5.7
I     4.8    5.8   -8.1
I   -10.1   -3.6    3.0
I     4.8   -6.0   -8.1
H     9.1    5.4   -3.3
H    -9.4   -5.4   -2.6
H    -8.4    6.5    3.4
H     9.0    2.4   -6.1
I    -5.1    5.8   -8.1
H     9.8   -3.5   -4.0
H    -2.3    9.7    5.2
I    -7.6    8.1   -1.0
H    -0.8    0.8   11.2
C     9.6    0.4   -5.9
H    -0.8   -9.4   -6.1
H    -9.9   -3.5   -4.0
I    -5.1   -6.0   -8.1
N     9.4   -5.4   -3.1
H     8.7    6.8   -2.4
H     1.3   10.1    5.1
H     9.1    0.0   -6.8
I     2.3    9.2   -6.3
C     9.5   -4.6   -4.3
I     9.6    2.4    5.7
P    -0.2   -7.8    8.4
H    -9.4    6.4   -2.6
H     9.1   -6.4   -3.3
I     7.3   -8.2   -3.8
N     0.0   -9.9   -6.0
H    -9.2    2.0   -6.8
N    -9.8    1.9   -6.0
H     3.1   10.0    5.1
C   -10.1    0.4   -5.9
I     7.2    2.1   -9.0
I     4.7   -2.5  -10.5
I    -2.7    9.4   -6.5
N     9.9    1.9   -6.0
I     7.2    5.9    7.3
H     8.1   -7.9    3.5
H    -9.4   -5.0   -5.0
H    10.4    2.3   -5.2
I     7.2   -5.9    7.3
I    -7.7   -8.2   -3.8
N     9.4    6.4   -3.1
I    -0.2  -11.6   -2.1
I    -7.5    2.0   -8.9
I   -10.1    2.4    5.7
H     0.5   -0.1   11.8
H   -10.8    0.3   -5.0
I    -5.2   -2.5  -10.5
P     4.8    3.5  -10.4
H     0.6   -9.8   -6.8
H    10.5   -0.1   -5.7
C   -10.2   -4.6   -4.3
H    10.3   -5.4   -2.6
H    -8.5   -7.8    3.3
I     2.3   11.7    1.4
I     4.8   -9.4    5.7
N   -10.3   -5.4   -3.1
I    -0.2   -5.5   10.7
I    -7.6   -5.9    7.2
I    -7.6    5.9    7.2
C    -2.6   10.7    4.9
P    -5.1    3.5  -10.4
I    -2.7   11.7    1.3
N    -0.4    0.5   12.1
H    -3.6   10.7    4.4
C     2.2   10.6    5.4
H    -1.9   11.2    4.3
P     7.2   -9.7   -1.1
H     1.4   -1.2  -12.0
I    -5.1   -9.4    5.7
P     2.3    7.7   -9.1
I    -0.2   12.0   -2.1
I    12.1   -0.1    1.4
H     8.5    7.3   -4.8
I     2.2  -11.9    1.4
H     4.0  -10.2   -5.4
P    -2.6    7.8   -9.1
I    -2.7  -11.9    1.3
H   -11.0   -5.0   -2.4
P     7.2   -4.0   -9.1
H     1.4  -11.1    5.1
H   -10.6    5.4   -3.3
P    -7.6   -9.7   -1.1
P    12.1    2.1   -1.1
H    11.2    4.0    3.3
P     4.7   -7.8    8.4
I    -0.2    6.3   10.7
H    11.3    0.7    5.1
H    11.2   -1.8    5.1
H    10.4    6.4   -2.6
I     7.2    2.5    9.8
H    10.3   -5.0   -5.0
H     3.0   -0.8  -12.1
N   -10.3    6.4   -3.1
H    -1.0   -0.2   12.4
H   -11.7   -0.7    4.3
H    -4.3  -10.0   -6.2
H     2.2  -11.7    3.8
P    -7.6   -4.1   -9.1
P     7.1   -3.6    9.7
H   -10.6    0.0   -6.8
H   -10.7    2.4   -6.1
P    -5.2   -7.8    8.4
I   -12.5   -0.1    1.3
H    -1.0  -11.5   -5.0
I     2.2   -2.0   12.3
I     9.6   -8.1    0.2
H    -2.7   -1.6  -12.2
I    -7.6    2.5    9.8
H     3.1  -11.1    5.1
I    12.1   -3.7   -1.0
H    -9.4    6.8   -5.0
H     2.3   11.9    3.8
H     4.2    0.5   12.0
H    12.1    0.1    3.8
H     2.2   10.7    6.5
H    10.5    2.0   -6.8
C     9.5    7.2   -4.3
I     4.7  -11.6   -2.1
H   -11.6    3.9    3.5
P   -12.5    2.1   -1.1
P    -7.6   -3.6    9.6
H     0.6    2.3   12.6
H   -10.6   -6.4   -3.3
N     2.2   -0.8  -12.6
C    -0.3  -11.4   -5.9
I     9.6   -2.0    8.3
I    -0.3    9.8    8.3
N     2.2  -11.7    4.8
P     2.3    8.2    9.6
I    -2.7   -2.2   12.4
I     2.3    5.4  -11.5
I    -5.2  -11.6   -2.1
H    -4.3    2.5   11.9
I     4.7   -5.5   10.7
P    -2.7    8.2    9.7
I   -10.1   -8.1    0.2
H    11.3   -5.3    3.4
H     1.9    0.2  -12.8
H    -4.5  -11.2   -4.9
H   -11.2   -4.5   -4.8
H    -5.9  -10.2   -5.4
H     5.6  -10.0   -6.2
H     0.7   11.7   -5.7
I    -2.6    5.5  -11.5
H    -3.1  -11.2    5.9
N    12.1    0.1    4.8
