         400
 sphere cut out from bulk 
P     0.0    0.0    1.4
I     1.0    2.1   -0.7
I     1.3   -2.1   -0.6
I    -2.5   -0.2   -0.6
P    -0.1   -0.1   -2.8
I    -1.4    2.0    3.5
I    -1.1   -2.1    3.5
H     0.8   -4.1    1.0
I     2.5    0.1    3.5
H    -4.0    1.2    1.0
H     3.6    2.8    0.4
H     0.2    4.4   -1.5
H     3.6   -2.6   -1.5
H    -3.6    2.1    2.3
H    -4.1   -2.0   -1.5
H    -0.1   -4.2    2.4
H     4.2    1.4    2.3
N     0.5   -4.8    1.7
N    -4.4    1.9    1.7
I     2.3    0.1   -4.9
I    -1.5    1.9   -4.8
I    -1.1   -2.3   -4.8
C     4.4    3.1    1.1
H     5.3    1.2    1.0
N     4.9    1.9    1.7
H    -4.2    3.6    0.6
P    -0.1    0.1    5.6
N    -0.1    5.3   -1.9
H    -1.2   -5.5    0.7
N     4.6   -2.8   -1.9
H     1.3   -5.1    2.2
H    -5.1    1.4    2.3
H     4.0    3.7    1.9
N    -4.7   -2.8   -1.9
H    -1.1    5.5   -1.5
H     5.2   -2.0   -1.5
H    -4.4   -3.7   -1.5
C    -5.0    3.1    1.1
H    -0.9    4.6   -3.7
C    -0.3   -5.9    1.1
H     4.3   -1.8   -3.8
H    -3.8   -3.1   -3.7
H     0.5    6.1   -1.5
H     4.9   -3.7   -1.5
C    -0.1    5.4   -3.3
H     5.2    3.6    0.6
C     4.6   -2.8   -3.4
H     0.9    5.1   -3.7
H     3.8   -3.5   -3.7
H     0.3   -6.4    0.4
H    -5.7   -2.6   -1.5
H    -5.8    2.8    0.4
C    -4.8   -2.8   -3.4
H    -5.0   -1.8   -3.8
H     5.7    2.1    2.3
H    -3.7   -2.8    4.6
H    -0.7    4.6    4.6
H     3.9   -1.2    5.3
H    -5.4    3.7    1.9
I     6.8   -0.2   -0.6
H    -0.5   -6.6    1.9
P    -0.1   -0.1   -7.0
I    -3.4    6.1   -0.7
I    -3.8   -5.9   -0.7
H     3.9    1.9   -5.6
H    -3.8    2.5   -5.6
H    -0.4   -4.6   -5.7
H    -0.4    6.4   -3.7
H     5.6   -3.1   -3.7
H     4.1   -3.7    5.0
H    -5.5   -3.5   -3.7
N     4.3   -1.8    6.0
C    -4.4   -3.1    5.4
H     1.5    5.3    5.2
I     3.3   -6.0    3.4
H    -5.4   -1.2    5.3
C    -0.5    5.5    5.4
I    -6.9    0.1    3.5
I     3.3    6.0    3.6
H     5.6   -2.8    4.6
H     3.5   -2.1    6.7
H     4.2    3.6   -5.6
C     4.9   -3.1    5.4
H     0.9    4.4    6.5
H    -4.3   -1.3    6.5
N     4.6    2.7   -6.0
N    -5.0   -1.8    6.0
N     0.8    5.3    6.0
H    -5.4    1.9   -5.6
I     1.1    2.2    7.7
I     1.3   -1.9    7.7
H    -0.6    6.4    4.9
H    -5.2   -3.7    5.0
N    -4.8    2.7   -6.0
I    -2.5   -0.0    7.7
H     0.8   -5.7   -5.7
I     2.1    7.8   -0.7
H    -3.9   -3.6    6.2
I     5.5   -5.9   -0.7
N    -0.1   -5.5   -6.1
H     5.5    2.5   -5.6
H    -1.3    5.4    6.2
I    -8.0   -2.1   -0.6
H     5.0   -1.3    6.5
I     3.5    5.8   -4.9
H    -5.1    3.6   -5.6
H    -0.8   -6.2   -5.7
I     3.1   -6.2   -4.9
I    -7.0    0.1   -4.9
I     6.0    6.1   -0.7
I    -8.4    2.1   -0.7
I     2.1   -8.4   -0.7
I     8.0    2.0    3.5
H     5.4   -3.6    6.2
H    -5.8   -2.1    6.7
H     1.0    6.1    6.6
I    -2.4   -8.0    3.5
H     3.6    3.0   -7.8
C     4.6    2.7   -7.5
H    -4.5    1.7   -7.8
I    -6.0   -6.0    3.4
I    -2.4    8.2    3.5
I    -6.0    6.0    3.6
I     8.2   -2.1    3.5
C    -4.7    2.7   -7.5
H     0.6   -4.8   -7.9
H     4.8    1.7   -7.8
C    -0.1   -5.5   -7.6
H    -4.0    3.4   -7.8
P     4.5    8.1    1.4
I     1.2   -2.1   -9.1
I     7.8    1.9   -4.8
I     1.0    2.1   -9.1
P    -9.3    0.0    1.4
P     4.5   -8.1    1.4
I    -2.5   -0.2   -9.1
P     9.3    0.0    1.4
P    -4.8    8.1    1.4
H    -8.5   -4.1    1.0
H    -1.1   -5.2   -7.9
P    -4.8   -8.1    1.4
I    -5.8    5.8   -4.9
I    -2.4   -8.0   -4.9
P     9.2   -0.1   -2.8
P     4.5    8.1   -2.8
P     4.5   -8.2   -2.8
H    -8.0   -5.1    2.2
P    -4.8    8.1   -2.8
I     8.2   -2.3   -4.8
P    -0.1    0.1    9.8
P    -9.4   -0.1   -2.8
H    -0.5    9.6    1.9
H     8.1   -5.5    0.7
H     0.3    9.8    0.4
P    -4.8   -8.2   -2.8
I    -2.4    8.2   -4.9
I    -6.2   -6.2   -4.9
H     5.4    3.4   -7.8
H     0.7   -4.6    8.9
H     8.3    5.5   -1.5
H    -5.7    3.0   -7.8
H     3.6    3.1    9.0
N    -8.9   -4.8    1.7
H    -4.5    1.8    9.0
H     0.1   -6.5   -7.9
H    -9.1    4.4   -1.5
H    -1.1   -5.0    8.9
H     0.5  -10.1   -1.5
I     6.8   -0.0    7.7
H     8.5    4.6   -3.7
I    -3.6   -5.9    7.7
H     4.9    1.8    9.0
C    -0.3   10.3    1.1
H     9.2   -4.2    2.4
I    -3.6    6.1    7.7
H    -3.9    3.5    9.0
H    -0.4   -9.8   -3.7
I    10.3    2.1   -0.7
H    -8.5    5.1   -3.7
H    -9.4   -4.2    2.4
H     9.5    4.4   -1.5
C    -0.1   -5.3    9.2
I    -7.2    7.8   -0.7
I    -3.4  -10.1   -0.7
H    -7.8    5.3    5.2
C     4.6    2.8    9.3
H    -8.8    6.1   -1.5
P     4.6   -8.0    5.6
H    -1.2   10.7    0.7
N     9.2    5.3   -1.9
P     9.2    0.1    5.6
C    -4.7    2.8    9.3
H    -1.1  -10.7   -1.5
P    -4.7   -8.0    5.6
C     9.0   -5.9    1.1
H     8.7    4.6    4.6
I    10.7   -2.1   -0.6
H     0.1   -6.4    8.9
H    -0.6   -9.8    4.9
P     4.6    8.2    5.6
H     3.5   -2.2  -10.1
H    10.1   -4.1    1.0
I    -3.8   10.3   -0.7
P    -9.4    0.1    5.6
P    -4.7    8.2    5.6
N    -9.4    5.3   -1.9
N    -0.1  -10.9   -1.9
N     9.8   -4.8    1.7
H    -9.0   -6.4    0.4
H    -5.7    3.1    9.0
H     5.4    3.5    9.0
I    -7.2   -8.4   -0.7
P    -0.1   -0.1  -11.2
C     9.2    5.4   -3.3
H     0.9    4.3  -10.3
I     6.9   -8.0    3.5
H     8.8   -6.6    1.9
I   -10.4   -2.1    3.5
H    -4.3   -1.4  -10.3
I     6.9    8.2    3.5
I     5.7   -5.9    7.7
I     3.3   10.2    3.4
I     3.3  -10.2    3.6
C    -9.6   -5.9    1.1
I    -8.1   -1.9    7.7
I     6.8   -0.2   -9.1
C    -0.1  -10.9   -3.3
I     2.1    8.1    7.7
C    -9.5    5.4   -3.3
I     2.1   -8.1    7.7
I     5.8    6.1    7.7
H     1.3   11.1    2.2
I   -10.7    2.0    3.5
I    -3.6    5.9   -9.1
H     8.1    5.4    6.2
I    -8.3    2.2    7.7
H     5.0   -1.4  -10.3
H     8.9   -4.6   -5.7
H    -8.4    4.4    6.5
I    -3.6   -6.1   -9.1
H    -0.8   10.0   -5.7
P     9.2   -0.1   -7.0
H     9.7   -6.4    0.4
H     8.9    6.4   -3.7
P     4.5    8.0   -7.0
N     0.5   11.5    1.7
I     3.1   10.0   -4.9
C     8.8    5.5    5.4
I     7.0   -8.0   -4.9
N    -8.5    5.3    6.0
H     9.9    6.1   -1.5
P    -4.8    8.0   -7.0
P     4.5   -8.2   -7.0
I     5.6   10.3   -0.7
H    -8.5   -5.7   -5.7
P    -9.4   -0.1   -7.0
I   -10.5   -2.3   -4.8
H     0.9  -11.1   -3.7
I     5.9  -10.1   -0.7
N     4.3   -2.0  -10.8
P    -4.8   -8.2   -7.0
H   -10.2    4.6   -3.7
H     1.0    5.9  -10.2
I     7.0    8.2   -4.9
H   -10.4    5.5   -1.5
I   -11.9   -0.2   -0.6
H     8.7    6.4    4.9
H     0.2  -11.8   -1.5
H    -5.8   -2.2  -10.1
H    -3.9   -3.8  -10.6
H   -10.5   -5.5    0.7
H    -1.3    5.2  -10.6
H    -0.4   -4.4   11.1
N    -0.1   -5.3   10.7
H   -10.0    4.6    4.6
I     3.5  -10.4   -4.9
H    10.2    5.1   -3.7
H     0.8   10.5   -5.7
H     8.5   -6.2   -5.7
H    -9.8   -6.6    1.9
N     0.8    5.2  -10.8
H    10.6   -5.1    2.2
I   -10.8    1.9   -4.8
C    -0.5  -10.8    5.4
H     3.9    2.1   11.2
N    -5.1   -2.0  -10.8
N     4.6    2.8   10.8
H     1.0  -10.1    6.6
H    -3.8    2.6   11.2
N    -4.7    2.8   10.8
H     1.5  -10.9    5.2
I     2.4    0.3   11.9
H     0.8   12.1    1.0
H    -0.9  -11.6   -3.7
H    -9.7    6.4   -3.7
H    -9.8   -4.6   -5.7
I    -1.1   -2.1   12.0
I    -1.5    2.1   11.9
H    -0.1   12.0    2.4
H     3.9   -1.4  -11.5
I     2.1    7.9   -9.1
H    -8.3    6.1    6.6
I     5.7    5.9   -9.1
N     9.2   -5.5   -6.1
I    11.8    0.1    3.5
N    -0.1   10.7   -6.1
I     5.7   -6.1   -9.1
I    -8.1   -2.1   -9.1
I    -6.0   10.2    3.4
I    -6.0  -10.2    3.6
H     0.9   -5.5   11.1
N     0.8  -10.9    6.0
H     5.4   -3.8  -10.6
H    -0.7  -11.6    4.6
C    -9.9    5.5    5.4
I     2.1   -8.3   -9.1
I    -8.3    2.1   -9.1
N    -9.5   -5.5   -6.1
H     0.1    9.7   -7.9
H     8.2   -5.2   -7.9
H    -1.3  -10.8    6.2
H     4.3    3.7   11.2
H    -5.4    2.1   11.2
C    -0.6    5.3  -11.4
I    11.7    0.1   -4.9
C    -4.4   -3.2  -11.4
H    -0.7   -6.1   11.1
H    -8.7   -4.8   -7.9
H     1.5    5.2  -11.6
I    -6.2   10.0   -4.9
H    -9.9    6.4    4.9
H     5.5    2.6   11.2
C     4.9   -3.2  -11.4
H    -5.1    3.7   11.2
H    -5.5   -1.4  -11.5
I    -5.8  -10.4   -4.9
H    10.2    4.4    6.5
N    10.1    5.3    6.0
H    10.2   -5.7   -5.7
H    -0.7    4.5  -12.2
H    -0.4   11.7   -5.7
H    -3.7   -2.9  -12.2
H     4.1   -3.8  -11.8
I    10.4    2.2    7.7
H     8.2   -5.0    8.9
C     9.2   -5.5   -7.6
C    -0.1   10.7   -7.6
H   -10.1   -6.2   -5.7
H     8.8    9.6    1.9
H    10.9    5.3    5.2
I    -3.6  -10.1    7.7
H    12.9    2.8    0.4
H     4.0  -12.5    1.9
H    -8.7   -4.6    8.9
I    10.6   -1.9    7.7
H    -4.2  -12.6    0.6
H     0.1    9.9    8.9
I    -7.2    8.1    7.7
I    -7.2   -8.1    7.7
C    -9.5   -5.5   -7.6
H    13.0   -2.6   -1.5
H   -12.9    2.1    2.3
H    -9.0    9.8    0.4
I    -3.6   10.3    7.7
H    -4.4   12.5   -1.5
H   -10.6    5.4    6.2
P     4.6   -8.0    9.8
H   -13.4    1.2    1.0
H     8.1   10.7    0.7
I     2.4   -0.0  -13.2
H    -5.2   -3.8  -11.8
H    -0.6    6.3  -11.9
P     9.3    0.1    9.8
H     0.9  -11.8    6.5
H    -8.8  -10.1   -1.5
P    -4.8   -8.0    9.8
I    -1.4    1.9  -13.3
I    -1.1   -2.3  -13.3
H     4.9   12.5   -1.5
P     4.6    8.2    9.8
H     8.3  -10.7   -1.5
P    -9.4    0.1    9.8
H    10.0   -4.8   -7.9
P    -4.8    8.2    9.8
H     5.2  -12.6    0.6
H    -1.1   11.0   -7.9
H   -13.4   -2.0   -1.5
I     3.2   -6.0   11.9
H     5.6   -2.9  -12.2
H    -5.4  -12.5    1.9
H    10.3    6.1    6.6
C     9.0   10.3    1.1
H     3.8   12.7   -3.7
H    13.5    1.4    2.3
H     9.7    9.8    0.4
H     8.9   -9.8   -3.7
I     3.5    6.0   11.9
H    -9.3   -6.5   -7.9
I    -7.0    0.3   11.9
H     4.4   -1.6   13.0
