         400
 sphere cut out from bulk 
H    -0.3   -0.6   -0.3
C    -0.9   -1.2    0.4
H    -1.4   -0.5    1.2
H    -0.3   -1.9    0.9
N    -2.0   -1.9   -0.4
I     2.0    0.2   -2.0
H    -2.6   -1.2   -0.8
I    -1.2    2.8   -0.2
H    -1.6   -2.5   -1.1
I     2.0    0.9    2.5
P     2.0    2.8   -0.0
H    -2.6   -2.4    0.3
H     3.8   -1.2   -0.8
H    -1.2    2.9   -2.8
H    -1.2    2.7    3.2
I     2.1   -3.5    1.7
H     3.8   -2.4    0.3
H    -0.3    1.6    4.3
I    -4.4    0.2   -2.0
N     4.4   -1.9   -0.4
C    -1.2    2.3    4.2
I    -1.2   -1.7    4.5
H    -0.4    1.6   -4.7
I    -1.3   -1.8   -4.5
P     2.0   -1.7    4.4
H    -2.1    1.7    4.3
I    -4.4    0.9    2.5
N    -1.2    3.3   -3.8
H     5.0   -0.5    1.2
P    -4.4    2.8   -0.0
P     1.9   -1.7   -4.6
H    -2.2    1.7   -4.6
H    -0.3    3.8   -3.8
C    -1.3    2.2   -4.8
I     2.0   -4.3   -2.7
H     4.8   -2.5   -1.1
C     5.5   -1.2    0.4
I     2.0    4.7   -2.7
H    -2.0    3.9   -3.8
I    -4.3   -3.5    1.7
I     5.2    2.8   -0.2
H     6.1   -0.6   -0.3
I     2.1    5.5    1.7
N    -1.1    3.3    5.2
H     4.3    1.7    4.3
I    -1.2   -6.2   -0.2
P    -4.4   -1.7    4.4
H    -0.2    3.9    5.1
H    -0.3   -5.2   -3.8
H     6.1   -1.9    0.9
H     4.2    1.7   -4.6
H    -1.2    2.7   -5.8
P     2.0   -6.2   -0.0
H     5.2    2.9   -2.8
P    -4.5   -1.7   -4.6
H    -2.0   -5.1   -3.8
H     5.2    2.7    3.2
H    -6.7   -0.6   -0.3
I    -4.4   -4.3   -2.7
H    -1.9    4.0    5.1
I     1.9    0.8   -6.5
H    -1.5    6.6   -1.1
H    -1.2   -6.1   -2.8
H    -1.1    2.9    6.2
N    -1.2   -5.7   -3.8
I    -4.4    4.7   -2.7
H    -6.7   -1.9    0.9
H     4.4    3.9   -3.8
C     5.2    2.3    4.2
I     5.2   -1.8   -4.5
H    -2.5    6.6    0.3
I     5.2   -1.7    4.5
H    -1.2   -6.3    3.2
H    -0.3    7.1    0.9
I    -4.3    5.5    1.7
N     5.2    3.3   -3.8
H    -0.3   -5.2    5.1
I     2.1    0.2    7.0
C     5.1    2.2   -4.8
C    -7.3   -1.2    0.4
N    -1.9    7.2   -0.4
H    -1.9   -5.1    5.1
H     6.1    1.6    4.3
P    -4.4   -6.2   -0.0
H     3.9    6.6    0.3
H     4.4   -5.1   -3.8
H     6.0    1.6   -4.7
N    -1.1   -5.7    5.2
I     2.1   -4.3    6.2
H     4.5    4.0    5.1
H    -7.8   -0.5    1.2
C    -0.9    7.9    0.4
H    -1.5   -0.6   -7.8
I    -4.5    0.8   -6.5
C    -1.2   -6.8    4.2
I     5.2   -6.2   -0.2
I     2.1    4.7    6.2
I    -7.6    2.8   -0.2
H    -6.7    1.6    4.3
N     5.3    3.3    5.2
H     6.1    3.8   -3.8
I    -4.3    0.2    7.0
H     5.2    2.7   -5.8
H     4.9    6.6   -1.1
H    -0.4   -2.0   -8.1
I     2.0   -3.6   -7.2
H    -2.6    7.9   -0.8
H    -1.5   -2.4    7.9
H    -6.8    1.6   -4.7
H    -8.0   -2.5   -1.1
C    -1.3   -6.8   -4.8
N     4.5    7.2   -0.4
H     4.5   -5.1    5.1
H    -0.3    8.5   -0.3
H     5.2   -6.1   -2.8
N    -8.4   -1.9   -0.4
H    -0.4   -7.4    4.3
H    -2.5   -1.1    8.1
N     5.2   -5.7   -3.8
H    -7.6    2.9   -2.8
H    -6.7    3.8   -3.8
I    -1.2    7.3   -4.5
I    -1.1    7.3    4.5
H     5.3    2.9    6.2
H    -7.6    2.7    3.2
I     8.4    0.2   -2.0
C    -1.0   -1.2   -8.5
H    -1.3   -6.3   -5.8
H    -1.4    8.5    1.2
I    -4.3   -4.3    6.2
H    -0.2   -0.5    8.7
I     2.0   -8.1    2.5
H    -1.2   -6.1    6.2
H    -2.1   -7.3    4.3
H     5.2   -6.3    3.2
H     3.8    7.9   -0.8
I     8.4    0.9    2.5
P     2.1    7.4    4.4
H    -0.4   -7.5   -4.7
H     6.1   -5.2   -3.8
P     8.4    2.8   -0.0
P     2.0    7.3   -4.6
I    -4.3    4.7    6.2
H     6.2    3.9    5.1
C    -7.6    2.3    4.2
I    -7.6   -1.7    4.5
H    -2.2   -7.4   -4.6
N    -1.9   -1.8    8.6
I    -7.7   -1.8   -4.5
N    -7.6    3.3   -3.8
H     3.9   -1.1    8.1
H    -9.0   -1.2   -0.8
I    -4.4   -3.6   -7.2
H     4.9   -0.6   -7.8
H    -6.6    3.9    5.1
H    -0.4   -0.6   -9.2
I     2.0   -8.8   -2.0
I     2.0    5.4   -7.2
I    -1.1    2.9    8.8
C    -7.7    2.2   -4.8
H    -9.0   -2.4    0.3
H    -6.7   -5.2   -3.8
N     5.3   -5.7    5.2
I     8.5   -3.5    1.7
H    -2.7   -2.5   -8.7
H     6.1    7.1    0.9
C    -0.8   -1.1    9.4
C     5.2   -6.8    4.2
H     4.3   -7.3    4.3
H     6.2   -5.2    5.1
H     4.9   -2.4    7.9
P     2.1    2.9    8.9
I    -4.4   -8.1    2.5
H    -0.4   -9.6   -0.3
P    -4.3    7.4    4.4
P     1.9    2.8   -9.0
C     5.5    7.9    0.4
P     8.4   -1.7    4.4
H     4.2   -7.4   -4.6
I    -1.3    2.8   -9.2
I     2.1    9.2   -2.0
P     8.3   -1.7   -4.6
H    -8.5    1.7    4.3
N    -7.5    3.3    5.2
P    -4.4    7.3   -4.6
N    -2.1   -1.9   -9.3
H    -1.4   -9.6    1.2
C     5.1   -6.8   -4.8
H    -6.7    7.1    0.9
H     3.7   -2.5   -8.7
I     8.4   -4.3   -2.7
I    -7.6   -6.2   -0.2
H    -2.5   -2.4    9.2
H    -6.7   -5.2    5.1
N     4.5   -1.8    8.6
H    -8.6    1.7   -4.6
H     5.0    8.5    1.2
H    -7.6    2.7   -5.8
I     5.2    7.3   -4.5
H     5.1   -6.3   -5.8
I     8.4    4.7   -2.7
H    -8.4    3.9   -3.8
H    -0.2   -1.9    9.9
I     5.3    7.3    4.5
I    -4.4    5.4   -7.2
I    -4.4   -8.8   -2.0
H     5.2   -6.1    6.2
H    -7.5    2.9    6.2
C     5.4   -1.2   -8.5
H    -7.6   -6.1   -2.8
H    -2.7   -1.2   -9.8
H    -1.3   -0.5   10.1
H     6.0   -2.0   -8.1
N    -7.6   -5.7   -3.8
C    -1.0  -10.2    0.4
I     8.5    5.5    1.7
H    10.2   -1.2   -0.8
H     3.9   -2.4    9.2
P    -4.3    2.9    8.9
H    -7.6   -6.3    3.2
H    -7.9    6.6   -1.1
H    -1.5    6.6    7.9
I    -4.3    9.2   -2.0
P     8.4   -6.2   -0.0
I     2.0    9.9    2.5
P    -4.5    2.8   -9.0
N     4.3   -1.9   -9.3
H     6.1    8.5   -0.3
H    -1.7   -2.5  -10.1
H     6.0   -7.4    4.3
H    10.2   -2.4    0.3
H     3.7   -1.2   -9.8
H    -8.3    4.0    5.1
H    -8.4   -5.1   -3.8
H    -2.7  -10.2   -0.8
I     8.3    0.8   -6.5
I     1.9   -8.2   -6.5
I     5.3    2.9    8.8
H     6.0   -7.5   -4.7
H     6.2   -0.5    8.7
H    -6.8   -2.0   -8.1
H    -0.3    7.1   -8.1
C    -7.3    7.9    0.4
I    -1.1   -6.2    8.8
N    -7.5   -5.7    5.2
H    -6.7    8.5   -0.3
I     5.1    2.8   -9.2
H     5.0   -9.6    1.2
H     3.7  -10.2   -0.8
H    -6.8   -7.4    4.3
I   -10.8    0.2   -2.0
H    -6.6   -0.5    8.7
C     5.6   -1.1    9.4
N    10.8   -1.9   -0.4
H     6.0   -0.6   -9.2
H    -0.3  -11.0    0.9
C    -7.6   -6.8    4.2
I     8.5    0.2    7.0
N    -8.3    7.2   -0.4
P     2.0   -6.2    8.9
H    -8.3   -5.1    5.1
N    -2.0  -10.9   -0.4
H    -7.9   -0.6   -7.8
I     1.9    0.2  -10.9
I   -10.8    0.9    2.5
P     1.9   -6.2   -9.0
I    -4.4    9.9    2.5
H    -8.9    6.6    0.3
H    -6.8   -7.5   -4.7
I    -1.3   -6.3   -9.2
P   -10.8    2.8   -0.0
H    -2.6    6.5   -8.7
H     6.0   -9.6   -0.3
C    -7.7   -6.8   -4.8
I     8.5   -4.3    6.2
C    -7.4   -1.2   -8.5
H     5.1   -0.5   10.1
N    -1.9    7.2    8.6
I    -4.5   -8.2   -6.5
H     4.7   -2.5  -10.1
I    -7.5    7.3    4.5
H     4.9    6.6    7.9
H    -7.9   -2.4    7.9
I     2.1   -8.8    7.0
I   -10.7   -3.5    1.7
I    -7.6    7.3   -4.5
I     2.2   -3.5   10.7
H    -0.3   10.6    4.3
H    -6.8   -0.6   -9.2
H    11.4   -0.5    1.2
H    -7.6   -6.1    6.2
H    -7.7   -6.3   -5.8
H     3.8    6.5   -8.7
H    11.2   -2.5   -1.1
I     8.5    4.7    6.2
H    -1.4    8.4   -7.8
H    -7.8    8.5    1.2
H    -0.4   10.6   -4.7
C     5.4  -10.2    0.4
C    -1.0    7.8   -8.5
H    -2.5    7.9    8.1
H    -2.5    6.6    9.2
I     8.4   -3.6   -7.2
I     2.1    0.9   11.4
H    -1.6  -11.5   -1.1
H    10.7    1.7    4.3
P    -4.4   -6.2    8.9
H    10.6    1.7   -4.6
P     2.0  -10.7    4.4
I    -1.2  -10.8    4.5
H    -6.8   -9.6   -0.3
N     4.4  -10.9   -0.4
P   -10.8   -1.7    4.4
H    -2.1   10.7    4.3
H    -2.6  -11.5    0.3
I    -1.3  -10.8   -4.5
H     6.2   -1.9    9.9
I     2.1    9.3    7.0
I    -4.5    0.2  -10.9
P     1.9  -10.7   -4.6
P    -4.5   -6.2   -9.0
H    -2.2   10.7   -4.6
I    -7.5    2.9    8.8
N    -2.0    7.1   -9.3
I    -1.2   11.8   -0.2
C    -7.2   -1.1    9.4
P   -10.9   -1.7   -4.6
I     5.3   -6.2    8.8
I     8.4   -8.1    2.5
I    11.6    2.8   -0.2
C    11.9   -1.2    0.4
H    -9.0    7.9   -0.8
I   -10.8   -4.3   -2.7
I     2.0    9.9   -6.5
H     3.9    7.9    8.1
H    -6.6   -1.9    9.9
I    -4.3   -3.5   10.7
H     3.9    6.6    9.2
P     2.0   11.9   -0.0
I    -4.3   -8.8    7.0
P     8.5    7.4    4.4
P     8.4    7.3   -4.6
H    -8.5   -7.3    4.3
I   -10.8    4.7   -2.7
H     3.8  -11.5    0.3
N    -8.3   -1.8    8.6
C    -1.1   11.3    4.2
H    -1.6    6.5  -10.1
N     4.5    7.2    8.6
H    10.8    3.9   -3.8
H    -8.9   -1.1    8.1
I   -10.7    5.5    1.7
H    -1.3    2.8  -11.7
H    -0.2    7.1    9.9
H    -0.2    8.5    8.7
H    10.3    6.6    0.3
I     5.1   -6.3   -9.2
I     2.2    5.5   10.7
H    -1.1   11.8    3.2
I    -4.3    0.9   11.4
H    -8.6   -7.4   -4.6
I    -7.7    2.8   -9.2
H    11.6    2.9   -2.8
C    -1.2   11.3   -4.8
C    -0.8    7.9    9.4
H    -1.2   11.9   -2.8
H     6.1    7.1   -8.1
I     8.4   -8.8   -2.0
P    -4.4  -10.7    4.4
I    -4.3    9.3    7.0
H     4.3   10.7    4.3
I     8.4    5.4   -7.2
H    11.6    2.7    3.2
H     4.2   10.7   -4.6
H    -7.8   -9.6    1.2
H    -1.5   -9.6   -7.8
H    12.5   -0.6   -0.3
H     4.8  -11.5   -1.1
H    -1.1    2.8   12.1
H    -0.4    8.4   -9.2
P   -10.8   -6.2   -0.0
H     5.0    8.4   -7.8
P    -4.5  -10.7   -4.6
H    10.8   -5.1   -3.8
N     4.4    7.1   -9.3
I    11.6   -1.8   -4.5
C    11.6    2.3    4.2
H     6.1  -11.0    0.9
P     8.3    2.8   -9.0
I    11.6   -1.7    4.5
C    -7.4  -10.2    0.4
I     1.9   -4.4  -11.7
P     8.5    2.9    8.9
I    -4.4    9.9   -6.5
P    -4.4   11.9   -0.0
N    11.6    3.3   -3.8
H    -6.7    7.1   -8.1
I     8.5    9.2   -2.0
H    10.9    4.0    5.1
H    12.5   -1.9    0.9
