         400
 sphere cut out from bulk 
P     0.4   -0.0    0.1
I    -2.2    0.4   -1.8
I    -1.6   -0.6    2.6
I     0.5    3.1    0.7
I     0.3   -3.2   -0.6
I     2.4    0.5   -2.4
I     3.0   -0.5    2.0
H    -2.9   -2.3   -0.1
H    -0.6    3.1   -2.9
H     3.7    2.2    0.6
H    -3.7    2.3   -1.0
H    -0.4   -3.2   -3.1
H     1.0    2.2    3.8
H     3.9   -2.4    0.5
C    -3.3   -3.2    0.4
H     1.3   -3.2    3.2
H     1.4    2.3   -3.9
H    -3.2   -3.2    1.5
H    -0.7   -2.4    4.2
H     1.7   -2.3   -4.0
H    -2.9   -4.1   -0.1
H    -0.9    2.2   -4.4
C    -0.5    3.1   -4.0
H    -0.7   -2.4   -4.6
H    -4.0    3.1    1.2
N    -0.2   -3.2   -4.2
C     4.3    3.1    0.5
H    -1.2    3.1    4.2
N    -4.3    3.1   -0.9
H     4.1    3.1   -1.6
H     4.2   -3.2   -1.0
N     4.4   -3.2    0.0
N     1.0    3.1   -4.3
C     0.8    3.1    4.4
C     1.3   -3.2    4.3
H     3.7    4.0    0.6
H    -3.7    3.9   -1.0
H     1.7   -2.3    4.7
H     1.0    4.0    3.8
H     3.9   -4.0    0.5
N    -0.2   -3.2    4.6
C     1.2   -3.2   -4.5
H     1.4    3.9   -3.9
N    -4.8   -3.2    0.0
C    -4.8    3.1    0.5
H    -5.3   -2.4    0.5
N     4.9    3.1   -0.9
N    -0.6    3.1    4.9
H    -0.7   -4.0    4.2
H    -5.4    2.2    0.6
H    -4.9   -3.2   -1.0
H     1.7   -4.1   -4.0
H     5.5    2.3   -1.0
P    -4.2   -0.1   -4.3
H    -0.8    2.3    5.5
H    -0.9    4.0   -4.4
H     5.1    3.1    1.2
H    -0.7   -4.0   -4.6
H    -5.1    3.1   -1.6
P    -4.2   -0.1    4.5
P     0.4    6.2    0.1
H     1.1    3.1   -5.4
H     1.5    3.1    5.3
P     0.4   -6.4    0.1
I    -1.6   -0.6   -6.2
I    -4.3   -3.2   -3.6
I    -2.2    5.8   -1.8
H     1.7   -4.1    4.7
I    -4.1    3.1    4.0
I    -6.2   -0.5    2.0
H    -0.3   -3.2    5.7
H     1.3   -3.2   -5.6
P     5.0   -0.1   -4.3
I    -1.6   -5.8    2.6
H    -5.3   -4.0    0.5
C     5.8   -3.2    0.4
I     2.4    5.7   -2.4
H     6.3   -2.3   -0.1
P     5.0   -0.1    4.5
H    -5.4    4.0    0.6
H     5.5    3.9   -1.0
I     4.9   -3.2   -3.6
H    -0.8    3.9    5.5
I     3.0   -5.9    2.0
H     5.9   -3.2    1.5
I     2.6    0.4    6.6
I    -4.2    3.1   -4.9
I    -6.7    0.5   -2.4
I     5.1    3.1    4.0
I     7.0    0.4   -1.8
I    -2.0    0.5    7.0
I    -2.2   -6.8   -1.8
I     3.0   -0.6   -6.8
I    -1.6    6.8    2.6
I    -4.2   -3.2    5.2
H     6.3   -4.1   -0.1
I     5.0    3.1   -4.9
I     3.0    6.7    2.0
I     2.4   -6.9   -2.4
I     4.9   -3.2    5.2
I     7.6   -0.6    2.6
I     0.6    3.1   -7.9
I    -1.6   -5.8   -6.2
P     0.4   -0.1   -8.6
H    -3.2   -3.2   -7.4
P    -4.2    6.3   -4.3
P    -4.2   -6.3   -4.3
I    -6.2   -5.9    2.0
P    -4.2    6.3    4.5
P    -8.8   -0.0    0.1
H    -7.5   -2.3   -4.0
P    -4.2   -6.3    4.5
I     0.3   -3.2    8.2
H    -7.7    2.3   -3.9
H    -2.9    8.5   -0.1
P     0.4   -0.1    9.0
H    -7.8   -3.2    3.2
H    -3.6    2.2   -8.0
H     3.9    2.3    7.9
H    -7.4   -2.3    4.7
P     5.0    6.3   -4.3
P     5.0   -6.3   -4.3
I     2.6    5.8    6.6
I    -6.7    5.7   -2.4
I    -6.2   -0.6   -6.8
P     5.0    6.3    4.5
I     7.0    5.8   -1.8
I    -8.7    3.1    0.7
I    -2.0    5.7    7.0
P     5.0   -6.3    4.5
H    -8.2    2.2    3.8
I    -1.6    6.8   -6.2
I    -6.6    0.4    6.6
H    -3.0    3.1    8.3
I    -6.2    6.7    2.0
H     3.7   -8.6    0.6
I    -8.8   -3.2   -0.6
I     3.0   -5.8   -6.8
H     3.9    8.6    0.5
H     4.2   -3.2    7.8
I     0.3    9.4   -0.6
H    -7.5   -4.1   -4.0
H    -2.9   -2.3    8.7
H     7.9    3.1    4.2
H     1.0   -8.6    3.8
H    -3.7   -8.6   -1.0
P     9.5   -0.0    0.1
H    -7.7    3.9   -3.9
C    -7.9   -3.2    4.3
I     0.5   -9.5    0.7
H     8.5    3.1   -2.9
H     3.9   -2.4   -8.4
H     1.7    8.5   -4.0
H     3.3    3.1   -8.4
H    -0.7    8.6    4.2
H     8.2    2.2   -4.4
H     1.4   -8.7   -3.9
H    -3.6    4.0   -8.0
H     3.9    3.9    7.9
C    -7.9   -3.2   -4.5
H    -2.9   -2.3   -8.9
C    -3.3   -3.2   -8.5
H    -7.4   -4.1    4.7
H    -0.9   -8.6   -4.4
H    -0.7    8.6   -4.6
H    -4.9   -3.2    7.8
H    -5.3    2.3    7.9
I     7.5   -0.6   -6.2
H     8.5   -2.4    4.2
N    -8.2    3.1   -4.3
H    -7.6    3.1    5.3
I     2.6   -6.8    6.6
C    -3.8    3.1   -8.6
H    -8.2    4.0    3.8
H     8.8   -3.2   -3.1
H     1.7    8.5    4.7
N     4.0    3.1    8.5
I     7.0   -6.8   -1.8
H     8.5   -2.4   -4.6
I     7.6   -5.8    2.6
C    -8.3    3.1    4.4
H    -0.4    9.4   -3.1
H     5.5    2.2   -8.0
I    -6.7   -6.9   -2.4
I     0.3   -3.2   -9.4
H    -0.6   -9.5   -2.9
I    -2.0   -6.9    7.0
C    -3.3    9.4    0.4
I     7.1    0.5    7.0
H     5.9   -3.2   -7.4
H     1.3    9.4    3.2
I     9.5   -3.2   -0.6
C     8.7    3.1   -4.0
H    -2.9   -4.1    8.7
H    -3.2    9.4    1.5
I     3.0    6.8   -6.8
H    -5.3    8.6    0.5
H     3.9   -4.0   -8.4
H    -7.8   -3.2   -5.6
I     9.6    3.1    0.7
H     8.2    4.0   -4.4
H    -8.1    3.1   -5.4
H    -5.2   -2.4   -8.4
H    -5.4   -8.6    0.6
I     0.6    3.1    9.7
H    -2.9   -4.1   -8.9
C    -3.3   -3.2    9.1
H     3.3    3.1    9.2
H    -5.3    3.9    7.9
N    -0.2    9.4   -4.2
H     5.5   -8.6   -1.0
C    -3.8    3.1    9.1
H    -0.8   -8.7    5.5
H     8.4    2.3    5.5
H     3.9   -2.4    9.2
H     8.5   -4.0    4.2
C    -0.5   -9.5   -4.0
H    -3.0    3.1   -9.4
N     4.4   -3.2   -8.8
N     8.9   -3.2   -4.2
N     4.4   -3.2    8.8
H     4.2    9.4   -1.0
N     4.4    9.4    0.0
H    -4.0   -9.5    1.2
N    -5.1    3.1    8.5
N     8.6    3.1    4.9
C     1.3    9.4    4.3
H     8.5   -4.0   -4.6
C     4.3   -9.5    0.5
H    -1.2   -9.5    4.2
N    -4.3   -9.5   -0.9
H     4.1   -9.5   -1.6
H     5.5    4.0   -8.0
N     4.0    3.1   -9.2
N     1.0   -9.5   -4.3
N    -0.2    9.4    4.6
C     1.2    9.4   -4.5
I     7.6    6.8    2.6
H    -9.5   -3.2   -3.1
C     0.8   -9.5    4.4
N    -4.8   -3.2   -8.8
N    -4.8   -3.2    8.8
N    -4.8    9.4    0.0
H     6.3    8.5   -0.1
H    -3.6    2.2    9.7
N     9.0   -3.2    4.6
C     5.4    3.1   -8.6
H    -9.8    3.1   -2.9
H    -4.9    9.4   -1.0
C    -4.8   -9.5    0.5
H    -5.2   -4.0   -8.4
P     0.4    6.3   -8.6
H    -2.9   10.3   -0.1
N     4.9   -9.5   -0.9
N    -0.6   -9.5    4.9
P     0.4   -6.3   -8.6
H    -5.9    3.1   -8.4
H     3.9    2.3   -9.7
H     6.1    3.1    8.3
N    -9.4   -3.2   -4.2
P    -8.8    6.2    0.1
C     5.8   -3.2   -8.5
H     8.4    3.9    5.5
H     3.9   -4.0    9.2
I    -6.2   -5.8   -6.8
P    -8.8   -6.4    0.1
I    -2.0    0.5  -10.7
H     5.1   -9.5    1.2
H    -5.1   -9.5   -1.6
H    -5.2   -2.4    9.2
C    -9.6    3.1   -4.0
N    -9.3   -3.2    4.6
I    -4.3    9.4   -3.6
H    -9.8   -2.4    4.2
N    -5.1    3.1   -9.2
I    -6.6    5.8    6.6
H     1.1   -9.5   -5.4
P     0.4    6.3    9.0
H     3.9   10.2    0.5
H     1.5   -9.5    5.3
H     6.3   -2.3    8.7
H     8.8   -3.2    5.7
H    -0.3    9.4    5.7
P     0.4   -6.3    9.0
C     5.4    3.1    9.1
H     1.3    9.4   -5.6
H    -3.7  -10.3   -1.0
H     3.7  -10.4    0.6
C     5.8    9.4    0.4
H    10.1    2.2    3.8
I   -10.7   -0.6    2.6
I    -4.1   -9.5    4.0
H    -3.6    4.0    9.7
H    -0.7   10.2    4.2
H    -9.8   -2.4   -4.6
H     1.0  -10.4    3.8
H     1.4  -10.3   -3.9
H     6.3   -2.3   -8.9
I     4.9    9.4   -3.6
H     4.2   -3.2   -9.8
H    -3.2   -3.2   10.2
H     1.7   10.3   -4.0
H     3.9    3.9   -9.7
H     5.9    9.4    1.5
H    -0.7   10.2   -4.6
H   -10.1    2.2   -4.4
I     3.0   -0.6   10.9
C     5.8   -3.2    9.1
H    -5.3    2.3   -9.7
N    -9.7    3.1    4.9
H    -0.9  -10.4   -4.4
H    -5.9    3.1    9.2
H     5.5    2.2    9.7
I     2.6    0.4  -11.1
H    -5.2   -4.0    9.2
C    10.0    3.1    4.4
I     7.5   -5.8   -6.2
P     9.5    6.2    0.1
I    -6.2    6.8   -6.8
H    -9.8   -4.0    4.2
N    10.1    3.1   -4.3
H    10.5   -3.2    3.2
I    -4.2   -9.5   -4.9
H     1.7   10.3    4.7
P     9.5   -6.4    0.1
H    -4.9   -3.2   -9.8
H    -9.5   -3.2    5.7
H     6.3   -4.1    8.7
H    10.6    2.3   -3.9
I   -11.3    0.4   -1.8
I     5.1   -9.5    4.0
I     7.1    5.7    7.0
H    -5.3   10.2    0.5
I    -6.6   -6.8    6.6
H    10.1    4.0    3.8
H    -9.9    2.3    5.5
I    -4.2    9.4    5.2
H    -9.8   -4.0   -4.6
I    -1.6   -0.6   11.5
H     6.1    3.1   -9.4
H   -10.4    3.1    4.2
H     6.3   -4.1   -8.9
C    10.4   -3.2    4.3
H   -10.1    4.0   -4.4
H     5.5  -10.3   -1.0
C    10.4   -3.2   -4.5
H    -0.8  -10.3    5.5
H    -5.4  -10.4    0.6
H    -5.3    3.9   -9.7
I     5.0   -9.5   -4.9
H    10.8   -2.3   -4.0
I    11.6    0.5   -2.4
I     4.9    9.4    5.2
H     5.5    4.0    9.7
I     7.5    6.8   -6.2
H    10.6    3.9   -3.9
H    10.2    3.1   -5.4
H    -9.9    3.9    5.5
H    -7.5    8.5   -4.0
I    -8.5    3.1   -7.9
H     6.3   10.3   -0.1
H    10.9   -2.3    4.7
I     7.1   -6.9    7.0
H    -7.4    8.5    4.7
H     5.9   -3.2   10.2
H    -7.7   -8.7   -3.9
H    10.8   -4.1   -4.0
H   -12.0   -2.3   -0.1
H    -3.6   -8.6   -8.0
I    -2.0    5.7  -10.7
H    10.5   -3.2   -5.6
P    -8.7   -0.1   -8.6
H    10.7    3.1    5.3
I    12.1   -0.5    2.0
H     3.9   -8.7    7.9
H    -0.8    2.3  -12.1
I     0.6   -9.5   -7.9
H    -0.3   -3.2  -12.0
H    -3.2    9.4   -7.4
I   -10.7   -0.6   -6.2
I    -1.6   12.0    2.6
H    -8.2   -8.6    3.8
I    -8.8   -3.2    8.2
I   -10.7   -5.8    2.6
I    -6.2   -0.6   10.9
I     0.3    9.4    8.2
H    -2.9    8.5    8.7
I    -2.2  -12.2   -1.8
H    10.9   -4.1    4.7
P    -8.7   -0.1    9.0
H     1.3   -3.2   12.1
I     2.4  -12.1   -2.4
P     0.4   12.6    0.1
I     3.0   12.1    2.0
H     3.9    8.6   -8.4
P     0.4  -12.6    0.1
H    -7.8    9.4    3.2
H    -2.9    8.5   -8.9
I     3.0   -5.8   10.9
H     8.2   -8.6   -4.4
