         400
 sphere cut out from bulk 
P    -0.2    2.0   -0.3
I    -0.2   -0.2    2.1
I     2.2    0.1   -1.3
I    -2.7    0.1   -1.4
P     2.2   -2.1    1.0
P    -2.7   -2.2    1.0
I    -0.2   -3.7   -0.3
I     2.2    3.6    1.0
I    -2.6    3.6    1.1
H     2.6    0.5   -3.8
I    -0.1    3.6   -3.0
H    -1.8    0.6   -4.3
H    -1.0   -0.4    5.0
I     4.7   -0.2    2.1
P     4.7    2.1   -0.2
H    -0.0    3.3    4.2
H     2.4   -3.5   -3.4
H     1.3   -5.0   -1.9
P    -5.1    2.1   -0.2
I    -5.1   -0.2    2.1
H    -1.0    4.8    2.6
N     3.1    0.8   -4.6
H    -1.9   -3.9   -3.6
I     2.1   -3.7    3.8
C    -2.4    1.2   -5.0
H    -2.7   -4.5   -2.2
H     0.6   -0.1    5.7
H     0.6    5.1    2.6
H     1.4    2.0   -5.2
H     0.5   -2.4    5.2
H    -3.3    1.6   -4.6
I    -2.6   -3.7    3.7
C    -0.3   -0.6    5.9
I     4.6   -3.7   -0.3
H     3.7    1.6   -4.4
H     1.4    0.3   -5.8
H    -1.7    2.0   -5.4
N    -0.3    5.2    3.2
C     2.0    1.2   -5.6
H     3.6   -0.1   -5.0
C    -2.7   -4.4   -3.3
I    -0.2   -2.1   -5.8
C     2.2   -4.5   -3.7
C    -0.2    4.4    4.4
N     2.1   -5.3   -2.5
H     3.0   -5.3   -1.9
H     1.2   -4.6   -4.3
N    -0.1   -2.0    6.1
H     2.0    5.4   -2.7
I    -5.2   -3.7   -0.3
H     4.1   -0.6    4.9
H    -3.6   -3.9   -3.6
H    -0.6   -5.6    3.4
I     4.7    3.5   -3.0
H    -1.8    5.4   -3.5
H    -0.9   -2.6    6.1
N    -2.7    0.4   -6.2
H    -3.3   -0.5   -5.9
H    -0.8   -0.2    6.8
H    -1.8   -0.1   -6.6
H    -1.1    4.5    5.0
I    -5.1    3.5   -3.0
H     0.7    4.8    5.0
H     3.8    3.9    4.4
H    -0.4    6.2    3.4
H    -4.3   -1.5    5.4
H     4.7    4.5    2.9
H     1.5    6.7   -1.9
H     1.9   -6.3   -2.7
H     0.5   -6.6    2.6
H    -4.2    3.8    4.3
H     3.0   -4.9   -4.3
H     2.5    1.5   -6.6
I     2.2    2.3    6.5
N     2.2    6.4   -2.5
H     0.5   -2.2    6.9
I     7.1    0.1   -1.4
H    -3.5    5.4   -3.5
N    -0.4   -6.6    3.2
I    -2.7    2.4    6.4
H    -5.1    4.5    2.9
C     4.6   -1.1    5.7
H     3.1    6.5   -1.9
H    -1.2   -6.9    2.6
H     3.9   -1.9    6.1
N    -2.8   -5.8   -3.8
N    -2.6    5.9   -3.8
P     7.1   -2.2    1.0
H    -1.9   -6.4   -3.5
H    -5.7   -0.6    4.9
C     4.7    4.4    4.0
H    -3.2    0.9   -6.9
I    -7.6    0.1   -1.3
I     4.8   -2.2   -5.7
H    -6.2    1.6   -4.4
C    -5.1    4.4    4.0
C    -5.3   -1.1    5.7
H     3.8   -5.4    4.3
H    -4.4    0.6    6.6
H     5.5   -1.5    5.4
I    -5.1   -2.2   -5.7
P    -7.6   -2.1    1.0
H    -6.2   -0.1   -5.0
H    -2.6    7.2   -2.2
I    -0.1    8.0   -0.3
H    -2.7   -5.8   -4.9
H     5.6    3.8    4.3
H    -2.6    5.9   -4.9
H    -3.6   -6.4   -3.5
I     7.2    3.6    1.1
H     3.9    0.3    7.1
H    -7.2    0.5   -3.8
H     6.5    1.6   -4.6
H     6.2   -3.9   -3.6
H    -4.3   -5.4    4.3
N    -6.8    0.8   -4.6
N     4.8   -0.2    6.9
H    -6.0    3.9    4.4
C    -2.6    7.3   -3.3
I     2.1   -8.1    1.0
H     1.4    7.2   -4.3
C     2.3    7.2   -3.7
I    -7.6    3.6    1.0
N    -5.0   -0.2    6.9
H     5.5    0.6    6.6
C    -0.3   -7.4    4.4
H     4.0    6.3    4.3
H     0.5   -7.0    5.0
I    -0.2   -8.1   -3.0
I    -2.8   -8.2    1.1
H     7.1   -4.5   -2.2
H    -4.2    6.3    4.3
H    -5.9   -1.9    6.1
H     3.2    6.9   -4.3
I    -0.0    2.2   -8.5
N     4.8    5.8    4.6
H    -1.7    7.8   -3.6
H     5.5   -5.4    4.3
N     4.6   -6.0    4.6
H     6.6   -0.5   -5.9
H    -6.9   -5.3   -1.9
H    -1.2   -7.2    5.0
H    -7.5   -3.5   -3.4
N    -5.1    5.8    4.6
I     7.2   -3.7    3.7
H    -4.6   -0.6    7.7
C     7.1   -4.4   -3.3
H     6.4    5.4   -3.5
H     4.6   -7.3    2.9
C     7.5    1.2   -5.0
H     8.0    0.6   -4.3
N    -5.2   -6.0    4.6
H    -6.0   -5.4    4.3
I    -2.5    8.0    3.7
I     2.3    8.1    3.8
P    -0.1   -3.8   -8.4
H    -5.9    0.3    7.1
H     2.5    8.3   -3.4
H    -3.5    7.8   -3.6
I    -7.7   -3.7    3.8
H     5.2   -0.6    7.7
H     4.8    5.7    5.6
I     4.8    8.0   -0.3
H    -0.1   -8.4    4.2
H     4.6   -6.0    5.6
H    -6.8   -4.9   -4.3
H    -5.3   -7.3    2.9
H     5.6    6.3    4.3
N     7.2    0.4   -6.2
H    -5.1    5.7    5.6
I    -5.1    8.0   -0.3
I     2.0   -2.2    9.0
H    -6.7    6.5   -1.9
C     4.6   -7.4    4.0
I     2.3   -5.7   -7.4
H     6.2   -6.4   -3.5
H     8.0   -3.9   -3.6
C    -7.6   -4.5   -3.7
I    -2.6   -5.7   -7.3
H    -5.9    6.3    4.3
H     6.7    0.9   -6.9
I    -2.9   -2.2    9.0
C    -7.8    1.2   -5.6
H    -5.2   -6.0    5.6
H     3.7   -7.9    4.4
N    -7.7   -5.3   -2.5
P    -0.3   -9.7   -0.3
I    -2.5    6.1   -7.3
I     9.6   -0.2    2.1
P     9.6    2.0   -0.3
I     2.4    6.1   -7.4
I     4.6   -8.2   -3.0
H    -7.8    5.4   -2.7
I    -4.9    2.3   -8.3
C    -5.2   -7.4    4.0
I     7.1    2.4    6.4
N     7.1   -5.8   -3.8
I     5.0    2.3   -8.3
H    -7.3    1.5   -6.6
H     8.1    2.0   -5.4
I    -0.3    5.8    8.1
P    -2.6    9.6    1.0
P     2.4    9.6    1.0
H    -4.3   -7.9    4.3
I    -0.4   -5.9    8.1
H    -8.5   -5.0   -1.9
N     7.2    5.9   -3.8
H    -8.4    2.0   -5.2
P     2.1    3.9    9.1
H     8.9   -0.4    5.0
I    -5.2   -8.2   -3.0
I    -7.6    2.3    6.5
N    -7.6    6.4   -2.5
P   -10.0    2.0   -0.3
H     8.0    5.4   -3.5
H    -8.5    0.3   -5.8
I   -10.1   -0.2    2.1
P    -2.7    3.8    9.2
P     4.7   -3.7   -8.4
I     9.6   -3.7   -0.3
H     8.8    4.8    2.6
I     2.3   -2.2   -9.9
H     7.1   -5.8   -4.9
H     8.0   -0.1   -6.6
I    -2.6   -2.2   -9.8
H     7.2    7.2   -2.2
H    -7.9   -6.3   -2.7
P    -5.1   -3.7   -8.4
H    -6.7    6.9   -4.3
H     7.2    5.9   -4.9
H     5.5   -7.9    4.3
H    -8.6   -4.6   -4.3
P     2.5    3.8   -9.7
H     6.3    7.8   -3.6
P     4.6   -9.7   -0.2
H     0.6    9.3    5.2
I   -10.1   -3.7   -0.3
H     7.9   -6.4   -3.5
P    -2.5    3.8   -9.7
C     7.2    7.3   -3.3
I     9.7    3.6   -3.0
I    -0.2    2.3   10.5
H    -9.2   -0.1    5.7
I     7.1   -8.2    1.1
H    -9.2    5.1    2.6
H    -6.1   -7.9    4.4
H    -8.4    6.7   -1.9
I     4.6    5.8    8.1
I     4.5   -5.9    8.1
P    -5.2   -9.7   -0.2
I    -9.9    3.6   -3.0
H    -9.4   -2.4    5.2
H     8.7    4.5    5.0
H    -0.8    9.2    6.1
C    -7.5    7.2   -3.7
P    -0.5   -3.7   10.5
H     8.9   -2.6    6.1
H     1.3   -9.8   -5.2
C     9.5   -0.6    5.9
H     9.8    3.3    4.2
H     0.6   -0.7  -11.2
H    -9.8    3.3    4.2
I    -0.0    9.6   -5.8
I    -5.2    5.8    8.1
H    -1.9   -9.7   -5.4
I    -7.7   -8.1    1.0
H     9.0   -0.2    6.8
H     9.3   -5.6    3.4
N     9.6    5.2    3.2
I    -5.4   -5.9    8.1
H     8.7   -6.9    2.6
N     0.1    9.7    6.1
I     9.7   -2.1   -5.8
H    -9.2    4.8    5.0
I     7.4    8.0    3.7
C     9.7    4.4    4.4
I     6.9   -2.2    9.0
I     4.6    2.3   10.4
H    -7.3    8.3   -3.4
P    -0.0    8.0   -8.4
H     3.5  -10.2   -4.4
H    -3.4  -10.1   -4.6
I     2.1   -9.5    6.5
N     9.8   -2.0    6.1
I    -7.6    8.1    3.8
I    -0.1   11.5    2.1
I    -2.8   -9.4    6.4
H     9.4    6.2    3.4
C   -10.2   -0.6    5.9
I     7.2   -5.7   -7.3
H    -0.7    0.3  -11.7
I   -10.0   -2.1   -5.8
N    -9.9   -2.0    6.1
H    -9.4   -6.6    2.6
N   -10.1    5.2    3.2
C   -10.0    4.4    4.4
H    -9.3   -2.2    6.9
H    10.3   -2.4    5.2
H     0.7    9.6    6.9
H     8.1    7.8   -3.6
I    -5.3    2.3   10.4
H    -8.5    7.2   -4.3
I     2.1  -11.6   -1.3
H    10.5   -0.1    5.7
H    10.4    5.1    2.6
H   -10.8   -0.4    5.0
C    -2.5  -10.5   -5.0
N     9.4   -6.6    3.2
P     4.5   -3.7   10.4
I    -7.5   -5.7   -7.4
N     0.2   -0.2  -12.0
H     1.4    0.9   11.9
I     7.4    6.1   -7.3
I    -2.8  -11.6   -1.4
P     7.3    9.6    1.0
I    -7.4    6.1   -7.4
H    -2.0  -11.1   -4.3
H     2.5  -11.3   -3.8
I    12.1    0.1   -1.3
C     1.9  -10.6   -5.6
I    -0.4  -12.0    2.1
I     2.4   11.9   -1.3
I    -7.9   -2.2    9.0
I     4.9    9.6   -5.7
P     2.0   -7.9    9.1
H   -10.9    4.8    2.6
I    -4.9    9.6   -5.7
I    -2.6   11.9   -1.4
I    -0.0    5.8  -10.8
P     7.1    3.8    9.2
P    -7.5    9.6    1.0
H     4.0    9.8    6.1
N     2.9  -11.0   -4.6
H   -10.4   -5.6    3.4
P    -5.4   -3.7   10.4
H    -4.2   10.2    5.4
P    12.1   -2.1    1.0
H     8.6   -7.2    5.0
H     0.9    0.5  -12.3
I    -0.2   -6.0  -10.8
I     7.2   -2.2   -9.8
H    11.2   -5.0   -1.9
H    -0.9   11.3    5.0
H     2.4  -10.3   -6.6
H   -11.7    0.6   -4.3
P    -2.8   -7.9    9.2
H   -10.3    6.2    3.4
P    -7.7    3.9    9.1
H    10.3   -6.6    2.6
P     4.8    8.0   -8.4
N   -10.2   -6.6    3.2
H     2.8   -0.0   12.3
H    11.3    2.0   -5.2
H    10.5    4.8    5.0
I   -12.5    0.1   -1.4
H   -10.6   -0.2    6.8
P    -5.0    8.0   -8.4
I    -7.6   -2.2   -9.9
C    -0.2   11.2    5.9
I     9.8    8.0   -0.3
H    10.4   -2.2    6.9
I    12.1    3.6    1.0
H    11.2    0.3   -5.8
H   -10.8   -2.6    6.1
H    -2.7    1.5   12.3
I     4.8   11.5    2.1
H    -9.3   -7.0    5.0
P    -7.3    3.8   -9.7
I    -5.0   11.5    2.1
I    -0.2   -9.5   -8.5
H    11.1   -4.6   -4.3
H    -6.3  -10.2   -4.4
P     2.4   -8.0   -9.7
I    -9.9    8.0   -0.3
P   -12.5   -2.2    1.0
N     1.9    0.4   12.6
P     7.4    3.8   -9.7
I    -2.4    2.2  -12.4
H    -4.1   -2.2  -11.9
P    -2.6   -7.9   -9.7
C     9.5   -7.4    4.4
H   -10.9    4.5    5.0
H   -11.7   -3.9   -3.6
H     6.4  -10.1   -4.6
H     4.4   -0.2  -12.1
I     2.5    2.3  -12.4
H     5.7   10.2    5.4
H   -11.6    2.0   -5.4
I     9.6   -8.1   -3.0
H     1.3  -11.5   -5.8
H    -0.7   -2.0  -12.8
H     4.3   11.2    4.9
H    -5.8    9.8    6.1
C     4.7   10.6    5.7
I     2.0   -5.6   11.5
I     4.6  -12.0    2.1
H     1.4   -0.4   12.9
H    12.4    0.5   -3.8
I   -12.5    3.6    1.1
H     0.8   11.7    5.7
