         400
 sphere cut out from bulk 
H    -0.1   -0.0    0.8
C    -0.3    1.0    0.8
H    -0.8    1.4   -0.1
H     1.6    1.4   -0.1
N     1.1    1.7    0.8
H    -0.8    1.4    1.6
H     1.6    1.4    1.6
H     1.0    2.7    0.8
I    -2.3   -0.9   -1.7
I     0.6   -3.4    0.8
I     3.0    0.2   -1.8
H     3.0   -2.6    0.8
H     3.8   -1.5   -0.1
I    -2.3   -0.9    3.2
P    -0.7   -3.5   -2.2
I    -1.0    3.3   -2.6
H     3.8   -1.5    1.6
N     3.8   -2.1    0.8
I     3.0    0.2    3.3
H    -3.9   -2.2    0.8
I    -3.9    2.5    0.8
H    -0.3    1.7   -4.4
P    -4.0    1.8   -2.2
H     2.1    1.0   -4.4
P    -0.7   -3.5    3.7
H    -0.1    0.2   -5.3
I    -1.0    3.3    4.1
N     0.2    1.2   -5.3
C    -4.7   -2.9    0.8
C     1.6    1.5   -5.3
P    -4.0    1.8    3.8
I     0.1   -2.6   -5.3
H     3.5   -1.9   -4.4
H    -4.7   -3.5   -0.1
C     5.1   -2.9    0.8
H     1.8    2.6   -5.3
H    -4.7   -3.5    1.6
H    -0.3    1.7    5.9
H    -6.0   -1.5   -0.1
H     5.1   -3.5   -0.1
H     2.1    1.0    5.9
H    -0.3    1.7   -6.1
N    -6.0   -2.1    0.8
H    -6.0   -1.5    1.6
H     5.9   -2.2    0.8
I    -0.8    6.3    0.8
H     5.1   -3.5    1.6
I     5.9    2.5    0.8
P     5.8    1.8   -2.2
H     2.1    1.0   -6.2
I    -3.6   -4.9   -2.8
I    -4.1    1.0   -5.3
H    -0.1    0.2    6.8
N     0.2    1.2    6.8
H    -4.1   -1.7   -5.3
P    -2.1    6.2   -2.2
H    -4.3   -3.1   -4.4
C     3.7   -2.5   -5.3
I     0.4   -6.4   -2.6
I    -6.8    0.2   -1.8
H     3.5   -1.9    5.9
C     1.6    1.5    6.8
H     3.3   -3.5   -5.3
P     5.8    1.8    3.8
H     3.7    6.2   -0.1
I     0.1   -2.6    6.8
H     1.6    7.1    0.8
H     3.5   -1.9   -6.2
I     4.8    4.8   -2.8
H    -6.8   -2.6    0.8
H     3.7    6.2    1.6
H     2.3   -7.0    0.8
I    -3.6   -4.9    4.3
N    -4.6   -2.6   -5.3
I    -5.0    4.8   -2.8
H     1.8    2.6    6.8
P    -2.1    6.2    3.7
I    -6.8    0.2    3.3
I     0.4   -6.4    4.1
I    -2.5   -7.2    0.8
I     7.5   -0.9   -1.7
H     5.5   -3.1   -4.4
C     3.7    6.8    0.8
H    -0.3    1.7    7.6
I     5.7    1.0   -5.3
N     5.2   -2.6   -5.3
H     5.7   -1.7   -5.3
H    -6.3   -1.9   -4.4
H    -4.3   -3.1    5.9
I    -4.1    1.0    6.8
H     2.1    1.0    7.7
N     2.5    7.6    0.8
I     4.8    4.8    4.3
H    -4.3   -3.1   -6.1
H    -4.1   -1.7    6.8
C     3.7   -2.5    6.8
I    -5.0    4.8    4.3
I     7.5   -0.9    3.2
H     3.3   -3.5    6.8
H    -8.2    1.4   -0.1
I     6.2   -4.9   -2.8
H     0.6   -8.3   -0.1
C    -6.0   -2.5   -5.3
H     2.0    6.2   -5.3
N     2.4   -8.0    0.8
H    -8.2    1.4    1.6
H     0.6   -8.3    1.6
N    -4.6   -2.6    6.8
H     2.4    8.2   -0.1
I    -1.0    3.3   -7.9
H     3.5   -1.9    7.7
H    -6.1    6.2   -0.1
P    -2.6   -7.9   -2.2
H     5.5   -3.1    5.9
H     2.4    8.2    1.6
C     1.1   -8.7    0.8
H     4.6    7.5    0.8
H    -6.1    6.2    1.6
H     5.5   -3.1   -6.1
H     3.0   -8.3   -0.1
H    -6.3   -1.9    5.9
I     5.7    1.0    6.8
N    -8.7    1.7    0.8
N     5.2   -2.6    6.8
H    -7.7    1.0   -4.4
H     4.2    6.6   -4.4
I    -1.3    7.1   -5.3
I     6.2   -4.9    4.3
H     3.0   -8.3    1.6
H     5.7   -1.7    6.8
P    -0.7   -3.5   -8.3
H    -6.5   -3.5   -5.3
H    -6.3   -1.9   -6.2
H     9.0    1.4   -0.1
I    -2.3   -0.9   -8.8
H    -5.2    7.5    0.8
C    -6.1    6.8    0.8
P    -2.6   -7.9    3.8
H     2.1    7.8   -4.4
I     3.0    0.2   -8.7
H     1.1   -8.0   -4.4
H     9.0    1.4    1.6
H    -4.3   -3.1    7.6
C     2.4    7.2   -5.3
H    -8.8    2.7    0.8
P    -4.0    1.8   -8.3
C    -6.0   -2.5    6.8
H     2.0    6.2    6.8
H     3.1   -7.2   -5.3
C     9.5    1.0    0.8
N     3.9    7.1   -5.3
I    -3.6    8.8   -1.7
H    -5.6    6.6   -4.4
H     9.7   -0.0    0.8
H    -7.7    1.0    5.9
I     8.8    3.3   -2.6
H     4.2    6.6    5.9
H    -1.5    9.7    0.8
C    -8.2    1.5   -5.3
H     1.2   -9.7    0.8
I    -3.6   -4.9   -7.8
I    -9.2   -3.4    0.8
H     4.2    6.6   -6.1
I    -1.3    7.1    6.8
H    -8.0    2.6   -5.3
H     5.5   -3.1    7.6
H    -9.9   -0.0    0.8
H    -7.7    1.0   -6.2
H     2.1    7.8    5.9
P     9.1   -3.5   -2.2
H    -6.5   -3.5    6.8
I    -1.0    3.3    9.4
H     1.1   -8.0    5.9
I    -3.6    8.8    3.2
N     1.5   -8.5   -5.3
C   -10.0    1.0    0.8
H    -6.3   -1.9    7.7
P     7.7    6.2   -2.2
H     1.1   -8.0   -6.1
H     2.1    7.8   -6.2
I     0.4   -6.4   -7.9
I     1.7    9.9   -1.8
C     2.4    7.2    6.8
C     3.0   -8.2   -5.3
I     7.3   -7.2    0.8
H    -7.5   -7.0    0.8
P     5.8    1.8   -8.3
I     8.8    3.3    4.1
H     3.4   -8.7   -4.4
H     3.1   -7.2    6.8
I     4.8    4.8   -7.8
I    -5.0    4.8   -7.8
P     9.1   -3.5    3.7
P    -0.7   -3.5    9.8
H    -5.6    6.6    5.9
H    -0.8    1.4  -10.4
H     4.3    8.0   -5.3
P    -2.1    6.2   -8.3
I    -2.8   -8.7   -5.3
N     3.9    7.1    6.8
I     1.7    9.9    3.3
H    -5.6    6.6   -6.1
P     7.7    6.2    3.7
I    -2.3   -0.9   10.3
N    -7.3    7.6    0.8
H     9.5    1.7   -4.4
N    -5.9    7.1   -5.3
H     1.6    1.4  -10.4
I     3.0    0.2   10.2
I     4.4   -9.5   -1.8
H   -10.6    1.4   -0.1
P    -4.0    1.8    9.8
C    -8.2    1.5    6.8
H    -6.8   -8.3   -0.1
H    -8.0    2.6    6.8
I    -0.9  -10.6   -1.7
H   -10.6    1.4    1.6
H    -8.2    7.1    0.8
H    -6.8   -8.3    1.6
H     4.2    6.6    7.6
I     6.2    8.8   -1.7
N    -7.4   -8.0    0.8
C    -1.6   10.8    0.8
I    10.3   -3.4    0.8
H    -7.7    1.0    7.7
P     7.2   -7.9   -2.2
H     1.3   -9.5   -5.3
N     1.5   -8.5    6.8
I     9.0    6.3    0.8
I     4.4   -9.5    3.3
I    -6.8    0.2   -8.7
H     3.4   -8.7    5.9
N    10.9    1.7    0.8
N    -9.6    1.2   -5.3
H    -7.4    8.2   -0.1
C     3.0   -8.2    6.8
H    -5.5    8.0   -5.3
H     9.7    0.2   -5.3
I     6.2   -4.9   -7.8
I    -3.6   -4.9    9.3
H    -6.6   -7.2   -5.3
I    -5.4   -9.5   -1.8
H     0.3   11.1   -0.1
H     1.1   -8.0    7.6
H   -10.1    1.7   -4.4
H    10.8    2.7    0.8
H     2.1    7.8    7.7
I    -0.9  -10.6    3.2
H    -9.8    0.2   -5.3
H    -7.4    8.2    1.6
H     3.4   -8.7   -6.2
H     3.8   -1.5  -10.4
I     6.2    8.8    3.2
H     0.3   11.1    1.6
H    -2.2   11.1   -0.1
H    -0.1   -0.0  -11.3
H    -1.4    9.9   -5.3
H    -7.8    6.2   -5.3
P   -10.5   -3.5   -2.2
N    10.0    1.2   -5.3
C    -0.3    1.0  -11.3
H     9.5    1.7    5.9
P     7.2   -7.9    3.8
I    -9.7   -2.6   -5.3
H     4.3    8.0    6.8
I    -2.8   -8.7    6.8
I     0.4   -6.4    9.4
H    -2.2   11.1    1.6
H     9.5    1.7   -6.1
N    -0.3   11.4    0.8
I    -5.4   -9.5    3.3
N     1.1    1.7  -11.3
N    -5.9    7.1    6.8
I     9.8   -2.6   -5.3
H    11.4    1.4   -0.1
H    -5.6    6.6    7.6
I     4.8    4.8    9.3
P     5.8    1.8    9.8
I   -10.8    3.3   -2.6
I    -5.0    4.8    9.3
I     7.5   -0.9   -8.8
H    11.4    1.4    1.6
H     0.7   10.7   -4.4
C    -7.4    7.2   -5.3
H    -6.4   -8.7   -4.4
H     1.0    2.7  -11.3
I    -9.4   -6.4   -2.6
P   -10.5   -3.5    3.7
H     1.3   -9.5    6.8
P    -2.1    6.2    9.8
P    -2.6   -7.9   -8.3
H    -7.7    7.8   -4.4
I     0.6   -3.4  -11.3
H   -10.1    1.7    5.9
N    -9.6    1.2    6.8
H    -5.5    8.0    6.8
H     9.7    0.2    6.8
H    -6.7   -7.2    6.8
H   -10.1    1.7   -6.1
C    -6.8   -8.2   -5.3
H    -4.7   -3.5  -10.4
H    -9.8    0.2    6.8
H     3.0   -2.6  -11.3
H    -0.8    1.4   11.9
I   -10.8    3.3    4.1
H     3.4   -8.7    7.7
H    -1.4    9.9    6.8
H     5.1   -3.5  -10.4
H    -7.8    6.2    6.8
H    -4.7  -11.2   -0.1
N     3.8   -2.1  -11.3
N    10.0    1.2    6.8
I    -9.4   -6.4    4.1
H     1.6    1.4   11.9
H    -3.9   -2.2  -11.3
I    -9.7   -2.6    6.8
H    -6.0   -1.5  -10.4
I     6.2   -4.9    9.3
N    -1.2   10.9   -5.3
I    -3.9    2.5  -11.3
H    -4.7  -11.2    1.6
I     9.8   -2.6    6.8
H    -2.5  -11.9    0.8
I   -12.1   -0.9   -1.7
I    -6.8    0.2   10.2
H     0.7   10.7    5.9
H    -6.4   -8.7    5.9
I     8.5    7.1   -5.3
H    -0.8    1.4  -12.2
I     8.8    3.3   -7.9
H     5.1  -11.2   -0.1
C    -8.7   -8.7    0.8
H     9.5    1.7    7.6
I    10.2   -6.4   -2.6
H     1.6    1.4  -12.1
H    -1.6   11.4   -4.4
I   -10.6    6.3    0.8
I     7.0   -8.7   -5.3
C     0.3   11.2   -5.3
C    -7.4    7.2    6.8
H     0.7   10.7   -6.2
H     5.1  -11.2    1.6
H    -6.4   -8.7   -6.2
H    -7.7    7.8    5.9
H    -9.2   -8.3   -0.1
H    -0.4   12.4    0.8
P     4.5   11.5   -2.2
I   -12.1   -0.9    3.2
H    -9.2   -8.3    1.6
H    -7.7    7.8   -6.2
C    -4.7   -2.9  -11.3
H     3.8   -1.5   11.9
H     3.7    6.2  -10.4
H    -8.7   -8.0   -4.4
C    -6.8   -8.2    6.8
C    11.4    1.5   -5.3
H    11.8    1.0   -4.4
N    -4.6  -11.8    0.8
I     4.3   10.7   -5.3
C     5.1   -2.9  -11.3
I    10.2   -6.4    4.1
H   -10.1    1.7    7.6
H     3.8   -1.5  -12.1
P     9.1   -3.5   -8.3
I     7.5   -0.9   10.3
H     8.3    9.7    0.8
H    -0.1   -0.0   12.8
H    -2.8  -11.4   -5.3
C    -0.3    1.0   12.8
P    -5.3   11.5   -2.2
P     4.5   11.5    3.8
P    -2.6   -7.9    9.8
P     7.7    6.2   -8.3
N    -1.2   10.9    6.8
I    -8.1    9.9   -1.8
N     5.2  -11.8    0.8
N    -6.0   -2.1  -11.3
H    -1.6   11.4    5.9
N     1.1    1.7   12.8
H     5.9   -2.2  -11.3
I    -0.8    6.3  -11.3
I    -3.6    8.8   -8.8
I    12.8    0.2   -1.8
I     5.9    2.5  -11.3
H    11.6    2.6   -5.3
N    -8.3   -8.5   -5.3
H    -8.5   -9.7    0.8
I     8.5    7.1    6.8
H    -1.6   11.4   -6.1
H    12.7   -2.6    0.8
I     4.5   12.2    0.8
C     0.3   11.2    6.8
I     7.0   -8.7    6.8
C    -3.4  -12.6    0.8
H     1.0    2.7   12.8
H     4.3  -12.4    0.8
I    -5.5   10.7   -5.3
P    -5.3   11.5    3.8
I    -8.1    9.9    3.3
H     0.7   10.7    7.7
