         400
 sphere cut out from bulk 
H     0.4    0.3   -0.3
C     0.1    1.4   -0.0
H     0.0    1.4    1.1
N    -1.1    1.7   -0.6
H    -1.9    1.1   -0.4
H     0.9    2.1   -0.3
H    -1.1    1.7   -1.7
H    -1.2   -2.5    0.5
I     2.7   -1.5   -0.2
H    -1.4    2.7   -0.3
H     1.1   -3.2    0.5
I    -3.5   -0.7    0.3
C    -0.9   -3.5    0.1
H    -0.8   -3.5   -1.0
I     1.4    0.7    3.6
N     0.4   -3.9    0.8
H     0.3   -3.9    1.8
I    -0.7    1.7   -4.1
H    -1.7   -4.2    0.4
H     2.0    2.7   -3.2
I     3.5    3.0    0.4
P     4.2    0.3    2.0
H     0.7   -4.8    0.5
H    -0.8    4.0    2.9
I    -2.2   -2.9   -3.5
H     3.5    3.1   -2.4
H     0.8    2.9    4.4
I    -2.1    4.9    0.4
C     2.8    3.3   -3.2
H    -1.6    3.3    4.4
I     0.0   -3.8    4.2
C    -0.9    4.1    4.0
P    -5.0   -2.5   -2.0
H     2.5    4.4   -3.2
P     5.1   -2.5   -2.0
N     0.4    3.8    4.7
P    -2.3   -0.6   -5.7
I    -4.3    2.6    3.7
P     1.6   -1.6    5.8
H    -0.6   -4.6   -4.2
P    -5.9    0.3    2.0
H    -2.8   -4.5    3.4
H     4.0    2.1   -4.5
H     1.1    4.6    4.3
I     5.0   -0.1   -4.3
N     3.6    3.1   -4.5
I     4.5   -1.9    4.4
I     6.7   -0.7    0.3
I    -5.2   -0.1   -4.3
H    -1.2    5.1    4.3
H     1.0   -5.1   -4.3
I    -4.4   -5.2   -0.2
I     3.5   -4.7   -3.7
H     0.3    3.9    5.7
H    -0.3   -6.4   -2.7
H     3.1    3.3   -5.3
N     0.0   -5.4   -4.5
I     0.1    6.1   -3.6
I     1.3   -7.0   -0.3
C    -3.7   -5.0    3.8
I    -6.6    3.0    0.4
H    -4.6   -4.4    3.7
H     4.5    3.8   -4.5
H    -4.1    1.5    5.9
P    -1.3    4.3   -5.8
I     5.8    2.6    3.7
I    -5.6   -1.9    4.4
P    -5.0    5.3    1.9
H    -4.0   -6.0    2.1
C    -0.4   -6.6   -3.7
P     5.2    5.3    1.9
I    -1.0   -0.5    7.5
I     0.2   -1.7   -7.4
I    -7.5   -1.5   -0.2
H    -6.7    3.1   -2.4
P    -2.4    7.2   -1.9
I     2.6    6.3    3.6
H     3.6    0.6   -6.9
I     5.8   -5.2   -0.2
H    -3.1    0.8    7.1
H    -0.1   -5.6   -5.5
I    -3.9    5.4   -4.2
H    -6.2    2.1   -4.5
H     5.5   -4.4    3.7
N    -3.9   -6.2    3.1
H    -3.6   -5.2    4.9
H    -1.4   -6.8   -4.0
N    -4.0    1.4    7.0
H    -5.7    3.8   -4.5
H    -3.1   -6.9    3.2
H     8.3    1.1   -0.4
I    -2.9    2.1   -7.5
H     0.5    7.7    3.2
H     0.2   -7.4   -4.0
H    -2.9    3.2    7.3
I     1.7    3.9   -7.3
H    -4.2   -3.0    6.7
N    -6.5    3.1   -4.5
H     6.1    1.5    5.9
H     2.6    1.4   -8.1
H    -1.2    7.9    3.4
C    -7.3    3.3   -3.2
H     2.5   -1.0   -8.3
C     3.5    0.8   -7.9
H     4.0   -4.8   -6.0
I     3.1    0.2    8.1
P     4.2   -7.4   -1.9
H    -4.8    0.9    7.3
H    -0.4    8.6    2.1
H     2.5   -3.8   -7.6
H     6.1   -6.0    2.1
N    -0.3    8.3    3.1
P     0.7   -6.5    6.0
I    -3.4    7.1    4.2
H    -2.4   -2.3    8.2
H    -4.8   -6.7    3.4
C    -3.8    2.7    7.7
I    -0.1    3.9    8.1
I    -6.7   -4.7   -3.7
C     6.4   -5.0    3.8
I     5.0    7.6   -0.3
H     2.2    7.8   -4.0
I     2.2   -4.2    7.7
H     3.9    7.2   -4.0
I    -1.0   -8.3    3.6
H     5.3    0.9    7.3
H     8.7    2.7   -0.3
I     3.1   -7.5    4.2
H    -8.2    2.7   -3.2
I    -5.2    7.6   -0.3
I     8.0   -2.9   -3.5
N     9.0    1.7   -0.6
H     7.3   -4.5    3.4
I    -3.9   -2.4   -8.1
H     3.3    8.2   -2.7
H     5.4   -6.7    3.4
I     6.3    5.4   -4.2
N     3.3   -0.5   -8.6
H     9.0   -2.5    0.5
N     6.3   -6.2    3.1
H    -7.6    4.4   -3.2
H    -4.7    3.3    7.5
C     3.2    8.0   -3.7
H     9.1    1.7   -1.7
C    -4.4   -2.9    7.8
N     6.2    1.4    7.0
I     8.0    4.9    0.4
I    -0.8    9.4   -0.2
H     8.5   -4.2    0.4
H    -7.1    3.3   -5.3
H     4.4    1.3   -8.3
H    -9.3    2.1   -0.3
H     6.0   -3.0    6.7
H    -6.6    0.6   -6.9
H     4.2   -1.1   -8.5
I    -8.8    0.7    3.6
H    -4.8   -1.9    8.0
N     4.2   -4.9   -7.1
H     2.2   -5.6   -7.5
N    -3.1   -3.1    8.5
C     2.9   -4.8   -7.8
H    -9.1   -3.2    0.5
H    -2.7   -4.0    8.3
P     1.5   -9.3    1.9
H     6.6   -5.2    4.9
P    -6.0   -7.4   -1.9
H     4.9   -4.2   -7.3
P     7.9   -0.6   -5.7
H    -9.8    0.3   -0.3
H    -3.7    2.5    8.7
H     5.5    3.3    7.5
H     5.3   -1.9    8.0
I    -3.5   -8.5   -3.6
H    -6.1   -4.8   -6.0
C     9.2   -3.5    0.1
I    -2.2   -6.2    7.5
P     0.6    1.3    9.9
I    -0.6   -6.1   -7.9
H    -5.3   -4.2   -7.3
H     7.0    0.8    7.1
H     9.4   -3.5   -1.0
C   -10.0    1.4   -0.0
C     5.8   -2.9    7.8
H     3.2   -0.3   -9.6
H     8.6    3.3    4.4
H    -5.8    1.3   -8.3
H    -5.1   -3.7    8.1
H     5.1   -3.7    8.1
H   -10.1    1.4    1.1
C     6.4    2.7    7.7
H    10.2    1.4    1.1
H    -6.3    7.2   -4.0
C    -0.1    9.6    3.8
H     7.1   -6.9    3.2
C    -6.7    0.8   -7.9
C    10.3    1.4   -0.0
H     4.6   -5.9   -7.3
H    -2.5    2.0   -9.9
P    -1.3   -3.4   -9.7
I     9.5    1.7   -4.1
H    -6.0   -1.1   -8.5
I     2.7   -9.2   -4.2
N    -6.0   -4.9   -7.1
I    -7.5    6.3    3.6
P    -8.6   -1.6    5.8
I     6.3   -2.4   -8.1
I    -1.4    6.6   -8.1
H    -3.3   -3.0    9.6
H    10.6    0.3   -0.3
N    -9.8   -3.9    0.8
H     1.9   10.4    0.4
H     0.0    9.4    4.9
H     3.1   -4.9   -8.9
H     9.4    4.0    2.9
I     7.2    2.1   -7.5
I     6.8    7.1    4.2
H     4.3    9.8    0.5
I     4.4   -9.7    0.4
H    -9.5   -4.8    0.5
H     0.8   10.1    3.4
H     7.3    3.2    7.3
P     7.8    7.2   -1.9
H    -9.4    2.9    4.4
H    -1.1  -10.2   -3.2
H    -9.9   -3.9    1.8
I    -7.1    0.2    8.1
H    -5.6   -5.9   -7.3
N     3.7    9.2   -4.5
C     9.3    4.1    4.0
H    -1.0   10.2    3.7
P     4.3    8.1    6.0
I    -3.1    9.9   -3.7
H    -9.0    4.6    4.3
N    -6.8   -0.5   -8.6
H    -6.9    8.2   -2.7
I     4.5    5.8    8.3
H     2.8   -3.7   10.1
I    -7.0   -7.5    4.2
H     8.9    5.1    4.3
H     6.5    2.5    8.7
H     3.5    9.0   -5.5
H    -7.6    1.4   -8.1
H    -2.5  -10.0    4.3
N    10.5   -3.9    0.8
C    -6.9    8.0   -3.7
H    11.1    2.1   -0.3
I    -5.7   -9.7    0.4
H    10.4   -3.9    1.8
I    -8.8   -7.0   -0.3
H     3.0   10.0   -4.2
H    -9.1   -5.1   -4.3
I     1.4    8.4    7.5
H    -7.7   -1.0   -8.3
H     4.7    9.5   -4.3
I     6.7   -8.5   -3.6
N    -2.4    2.0  -10.9
H    -5.9    9.8    0.5
C     2.7   11.1    0.1
H    -2.1    1.0  -11.2
H    -7.7   -3.8   -7.6
N     4.0   10.7    0.8
H     9.6   -4.6   -4.2
N    -9.7    3.8    4.7
H     2.8   11.1   -1.0
N   -11.3    1.7   -0.6
P     8.9    4.3   -5.8
N     7.0   -3.1    8.5
H   -11.2    1.7   -1.7
P     1.5    6.2   -9.6
H    -4.8   -9.5    4.3
H    -2.0    8.7   -7.3
H     7.7   -2.3    8.2
H     3.9   10.7    1.8
H   -11.0   -3.5   -1.0
I    -5.6    5.8    8.3
I    -0.1  -11.6    0.4
H   -11.3   -2.5    0.5
C   -11.1   -3.5    0.1
P    -5.8    8.1    6.0
P     1.6    6.2    9.7
I   -10.2   -3.8    4.2
I    10.2   -3.8    4.2
C    -7.3   -4.8   -7.8
I    -2.3    1.7   11.3
H    -1.7    2.7  -11.2
H    -0.1  -11.5   -2.4
H     5.3   -9.5    4.3
I   -10.9    1.7   -4.1
C    -0.8  -11.2   -3.2
H    -2.5    9.7   -6.0
H    11.3   -3.2    0.5
H     0.8  -10.8   -4.5
H    -5.5    9.5   -4.3
H     8.7   -6.8   -4.0
H    -4.4  -10.6    2.9
I    -7.9   -4.2    7.7
H    10.8   -4.8    0.5
H    -8.0    7.8   -4.0
H     7.5   -4.0    8.3
I     9.2   -0.5    7.5
I    -8.5    3.9   -7.3
H     2.3   -2.7   11.3
H    -6.9   -0.3   -9.6
I     1.7   -3.7  -11.2
H   -11.6    2.7   -0.3
I     3.0    8.5   -7.9
H   -10.9    4.0    2.9
H    -9.8    3.9    5.7
N     2.9   -3.5   11.1
H     9.8   -6.4   -2.7
I    11.5    0.7    3.6
I     0.7   -1.0   12.0
I     3.6   10.8    4.2
H   -12.1    1.1   -0.4
I     0.9   -8.8    8.3
C    -4.5  -10.5    4.0
I    -1.5   -1.2  -12.0
N    -3.2  -10.7    4.7
N    -6.5    9.2   -4.5
H    11.0    2.9    4.4
H    -4.4    1.5  -11.2
H     6.9   -3.0    9.6
N    10.6    3.8    4.7
N    -2.4    9.7   -7.1
H    -7.9   -5.6   -7.5
I     2.2    3.5   11.5
I     3.0    0.7  -11.9
H    -3.3    4.0   11.1
H    -4.2    5.2   10.3
I   -10.1    6.1   -3.6
N     0.0  -11.5   -4.5
N   -10.1   -5.4   -4.5
I     1.4   11.7   -3.5
H     4.7   11.4    0.5
H    -7.1   -4.9   -8.9
C     9.8   -6.6   -3.7
H     2.4   12.1    0.5
C    -3.8    2.2  -11.6
P    -1.4   12.1   -2.0
N    10.2   -5.4   -4.5
N    -6.2   10.7    0.8
H   -10.7   -4.6   -4.2
H     3.9   -3.3   11.3
H     5.8  -10.6    2.9
H     9.0    7.9    3.4
C   -11.0    4.1    4.0
H    -4.1    3.2  -11.3
H    -1.6  -11.9   -3.2
I    10.3    6.1   -3.6
H    -0.6  -11.3   -5.3
H    -4.3    9.0   -7.5
H    -6.6    9.0   -5.5
I    -5.1   -8.0   -8.1
I     5.1   -8.0   -8.1
I    -9.9   -1.7   -7.4
H    -3.3  -10.7    5.7
I     8.0   -6.2    7.5
H    -6.3   10.7    1.8
H   -10.5   -6.4   -2.7
H    10.5    3.9    5.7
H   -11.9   -4.2    0.4
C     5.7  -10.5    4.0
I    -7.5   -9.2   -4.2
H    -5.4   11.4    0.5
H     1.4   -4.9   11.6
H     7.6    2.0   -9.9
H     5.7    1.5  -11.2
I     7.1    9.9   -3.7
N    -3.7    5.0   11.1
H    -9.6    7.7    3.2
I    -0.2    4.5  -12.0
H    10.1   -5.6   -5.5
H    -2.8    5.6   11.1
I     2.2  -12.0    3.7
P    -4.9  -10.3   -5.8
H    -2.8  -11.7    4.4
H    -2.7  -12.5   -0.3
H    -1.7   10.4   -7.3
I    -3.8   -2.8   11.9
P    -8.6   -9.3    1.9
H    12.2    2.7   -3.2
I     9.2   -8.3    3.6
I    10.4   -1.7   -7.4
H   -10.2   -5.6   -5.5
P    -2.2   -8.4   -9.6
H    -5.1  -11.9   -0.3
I    12.8   -1.5   -0.2
P     5.3  -10.3   -5.8
H    11.3    4.6    4.3
H     5.9    5.2   10.3
H     5.1  -11.9   -0.3
H   -11.7    3.3    4.4
P    -9.5   -6.5    6.0
C   -10.6   -6.6   -3.7
C     2.5   -4.7   11.9
H    -7.1   10.0   -4.2
H    -9.9   -7.4   -4.0
H    -7.4   -3.7   10.1
I    -2.9   -5.7  -11.4
P    -2.0   -8.4    9.7
