         400
 sphere cut out from bulk 
P    -0.8    0.0   -0.7
I     2.4   -0.0   -0.6
I    -0.7   -1.8    2.0
I    -0.8    2.6    1.2
H     2.3    0.4    2.1
H     1.0    0.3    3.1
I    -0.8   -2.6   -2.5
N     2.0    0.5    3.1
H     1.5    3.3   -0.5
I    -0.8    1.9   -3.3
H     1.6   -3.4   -1.5
I    -4.0   -0.0   -0.6
H     2.1    1.5    3.3
H     2.4    0.0   -3.9
H    -3.1    3.4   -0.6
C     2.4    4.0   -0.5
H    -4.2    0.4    2.1
H    -2.6   -0.1    3.9
H     2.6   -1.4    3.7
H     3.3    3.4   -0.6
H    -3.2   -3.3   -1.5
N     2.4   -3.9   -1.5
H     3.3   -3.3   -1.5
C     2.8   -0.3    4.0
H     2.4    4.5    0.5
H     2.5   -4.4    0.5
H     1.5    1.1   -5.0
C    -3.7   -0.3    4.0
N    -4.5    0.5    3.1
H     3.8   -0.1    3.9
C     2.4    0.5   -4.9
H    -3.8   -1.4    3.7
H     2.4   -4.3   -2.5
C     2.5   -5.0   -0.5
H     2.4   -0.2    5.0
H    -4.0    0.0   -3.9
P     5.6    0.0   -0.7
C    -4.0    4.0   -0.5
H    -4.4    1.5    3.3
H     2.3    4.6   -2.5
N     2.3    5.0   -1.5
N    -4.0   -3.9   -1.5
H     1.6   -5.6   -0.5
P    -0.7   -4.5    3.8
P    -0.8    4.5    3.8
H     1.5    5.6   -1.5
H    -4.9    3.3   -0.5
I    -0.8    1.8    5.6
H    -4.0   -4.4    0.5
H    -3.2    1.2   -5.0
H    -4.0    4.5    0.5
H     3.3    1.2   -5.0
H    -4.9   -3.4   -1.5
I     2.4    4.2    3.9
H     1.6   -1.1   -6.0
I     5.7   -1.8    2.0
I     5.6    2.6    1.2
H    -5.5    0.3    3.1
H    -3.0   -5.5   -0.6
C    -4.0   -5.0   -0.5
C    -4.0    0.5   -4.9
H    -4.0   -4.3   -2.5
H    -4.0   -0.2    5.0
I    -0.7   -6.3    1.2
N     2.5   -0.5   -6.0
H     3.4   -5.5   -0.6
I     2.5   -4.7    3.9
H    -4.1    4.6   -2.5
H     3.2    5.6   -1.5
N    -4.1    5.0   -1.5
H    -3.3    5.6   -1.5
I     5.6   -2.6   -2.5
I     5.6    1.9   -3.3
H    -3.1   -1.0   -6.0
I    -0.9    6.3   -2.5
P    -0.9    4.4   -5.2
H     3.3   -1.0   -6.0
P    -0.8   -4.5   -5.2
I    -4.1    4.2    3.9
I    -0.8   -2.7    6.5
H    -5.0    1.1   -5.0
I     2.4   -4.4   -5.1
I     2.4    4.5   -5.1
N    -4.0   -0.5   -6.0
I    -0.8   -1.9   -6.9
I    -4.0   -4.7    3.9
P    -7.3    0.0   -0.7
H     2.5   -0.0   -6.9
H    -4.8   -5.6   -0.5
I    -0.8    7.1    2.0
H    -5.0    5.6   -1.5
I    -7.2   -1.8    2.0
H    -4.8   -1.1   -6.0
I    -7.3    2.6    1.2
I    -0.8   -7.1   -3.3
I    -4.0   -4.4   -5.1
I    -4.1    4.5   -5.1
H    -4.0   -0.0   -6.9
H     2.6    3.8    6.5
H     7.4    0.3    3.1
I    -7.2   -2.6   -2.5
P     5.6    4.5    3.8
P     5.7   -4.5    3.8
I     5.6    1.8    5.6
I    -7.3    1.9   -3.3
I    -0.9    2.6   -7.8
P    -0.8   -0.1    8.2
H     2.2   -7.4    3.3
H    -3.9    3.8    6.5
I     5.7   -6.3    1.2
H     2.7    2.7    7.7
H     8.0    3.3   -0.5
I     2.4    0.1    8.3
H     2.7   -5.1    6.5
I     5.6    6.3   -2.5
P     5.6    4.4   -5.2
H     8.0   -3.4   -1.5
H     2.5    7.5    3.7
N     2.8    3.7    7.5
I     8.9   -0.0   -0.6
P     5.7   -4.5   -5.2
P    -0.7   -8.9   -0.7
H     8.7    0.4    2.1
H    -2.6    3.9    7.6
N     8.4    0.5    3.1
I     5.6   -2.7    6.5
I    -0.9    6.2    6.5
H    -3.8    2.7    7.7
P    -0.9    9.0   -0.7
H     2.3   -3.3    8.1
H    -3.8   -5.1    6.5
N    -3.6    3.7    7.5
H     2.3   -8.6    2.1
I    -0.7   -7.2    5.6
I     5.7   -1.9   -6.9
H    -4.3   -7.4    3.3
N     2.1   -8.4    3.1
I     2.3    8.9   -0.6
I    -4.0    0.1    8.3
H     8.5    1.5    3.3
P    -7.2   -4.5    3.8
H    -3.9    7.5    3.7
H     1.1   -8.7    3.1
I     5.6    7.1    2.0
I     2.5   -9.0   -0.6
P    -7.3    4.5    3.8
I    -7.2    1.8    5.6
H     0.9    4.3    8.2
H     3.8    3.9    7.6
H     1.6   -7.8   -5.0
H     7.9    1.1   -5.0
H    -2.5   -5.0    7.6
H     1.0   -4.6    8.2
N     2.9   -5.2    7.5
I     5.7   -7.1   -3.3
I    -7.2   -6.3    1.2
P    -0.8   -0.1   -9.7
H     8.9    0.0   -3.9
C     2.1   -4.4    8.4
C     8.8    4.0   -0.5
H    -3.1   -7.7   -5.0
H    -4.1   -8.6    2.1
H    -4.2   -3.3    8.1
H     0.9    9.2    3.1
H     2.3    4.4   -8.4
C     2.0    4.6    8.4
H     2.2    9.3    2.1
H     7.9    5.6   -1.5
H     3.3   -7.7   -5.0
I    -3.9   -9.0   -0.6
N     8.9   -3.9   -1.5
N    -3.5   -5.2    7.5
H     8.1   -5.6   -0.5
I    -4.1    8.9   -0.6
I     2.4    0.1   -9.5
C     2.7    8.6    4.0
H     2.4   -4.6   -8.4
H    -9.1   -0.1    3.9
H     9.1   -1.4    3.7
I     5.6    2.6   -7.8
H     8.8    4.5    0.5
H     3.9   -5.0    7.6
I    -0.8    7.1   -6.9
H     1.6    7.8   -6.0
P     5.7   -0.1    8.2
P    -7.2   -4.5   -5.2
P    -7.3    4.4   -5.2
N    -4.4   -8.4    3.1
I    -7.3    6.3   -2.5
H     8.9   -4.4    0.5
C     2.5   -8.4   -4.9
H     2.3    8.9   -3.9
C     9.2   -0.3    4.0
H     2.5   -8.9   -3.9
H    -2.7    8.9    3.9
I    -0.8   -6.3   -7.8
H     8.1   -1.1   -6.0
N     1.9    9.4    3.1
H     2.2    5.6    8.1
C     8.8    0.5   -4.9
I    -7.3   -2.7    6.5
H    -2.5   -9.0    3.9
H    -9.6    3.4   -0.6
I    -7.2   -1.9   -6.9
H     8.9   -4.3   -2.5
H     8.9   -0.2    5.0
C    -3.8    8.6    4.0
H     8.8    4.6   -2.5
C     8.9   -5.0   -0.5
N     8.8    5.0   -1.5
H    -9.6   -3.3   -1.5
H     2.8   -6.2    7.7
H     9.7   -3.3   -1.5
I    -4.0    0.1   -9.5
H     9.8    3.4   -0.6
H    -4.2    4.4   -8.4
H     2.3    8.8    5.0
I    -7.3    7.1    2.0
H    -3.2    7.9   -6.0
H     3.7    8.9    3.9
H     3.3    7.9   -6.0
H    -4.1   -4.6   -8.4
H    -4.3    9.3    2.1
C    -4.4   -4.4    8.4
I    -0.9    2.6   10.1
I   -10.5   -0.0   -0.6
C    -4.0   -8.4   -4.9
C     2.9   -9.3    4.0
H    -4.9   -7.8   -5.0
H     2.3   -3.3   -9.7
H    -4.0   -8.9   -3.9
I     5.5    6.2    6.5
I     8.8    4.2    3.9
C    -4.5    4.6    8.4
P     5.5    9.0   -0.7
H     3.9   -9.0    3.9
H     0.9    4.3   -9.6
I    -7.2   -7.1   -3.3
P     5.7   -8.9   -0.7
H    -3.7   -6.2    7.7
H    -4.1    8.9   -3.9
C     2.1   -4.4   -9.5
N     2.4    8.5   -6.0
H     2.3    4.4    9.4
H    -5.4   -8.7    3.1
C     2.0    4.6   -9.5
H     2.5   -9.1    5.0
H     1.0   -4.6   -9.6
C    -3.6   -9.3    4.0
N     8.9   -0.5   -6.0
H     2.4   -4.6    9.4
H    -4.3    5.6    8.1
I     5.7   -7.2    5.6
I     8.9   -4.7    3.9
H    -5.5    4.3    8.2
H     2.7    2.7  -10.1
H   -10.6    0.4    2.1
C   -10.1   -0.3    4.0
H    -5.4   -4.6    8.2
H    -9.6    1.2   -5.0
C     2.3    9.5   -4.9
H    -4.1    8.8    5.0
N    -4.6    9.4    3.1
P    -7.2   -0.1    8.2
I    -0.7  -10.7    2.0
H     9.7    1.2   -5.0
I    -7.3    2.6   -7.8
H    10.3   -0.1    3.9
H    -9.5   -5.5   -0.6
H    -4.9    7.8   -6.0
H   -10.3   -1.4    3.7
H    -4.2   -3.3   -9.7
I    -0.8   -1.9   10.9
H    -3.9   -9.1    5.0
I     8.8    4.5   -5.1
H    -3.8    2.7  -10.1
N    -4.1    8.5   -6.0
H     2.0   10.5    3.3
I     8.9   -4.4   -5.1
H    -5.6    9.2    3.1
P     5.7   -0.1   -9.7
H   -10.5    0.0   -3.9
H     2.4   -0.0   10.9
H    -4.2    4.4    9.4
C   -10.5    4.0   -0.5
H     9.6    5.6   -1.5
H    -2.6    3.9  -10.2
H    -4.1   -4.6    9.4
N   -10.5   -3.9   -1.5
H     8.9   -0.0   -6.9
C    -4.4   -4.4   -9.5
H    -9.5   -1.0   -6.0
H     2.7  -10.3    3.7
H     1.4   10.0   -5.0
H     9.9   -5.5   -0.6
I    -0.9   10.8   -3.3
H   -10.4   -4.4    0.5
H    -9.7    5.6   -1.5
N     2.8    3.7  -10.3
N   -10.9    0.5    3.1
I     5.6    7.1   -6.9
C    -4.4    4.6   -9.5
H   -10.8    1.5    3.3
H   -10.5    4.5    0.5
H     2.2    5.6   -9.7
C    -4.1    9.5   -4.9
N     2.5   -9.4   -6.0
P    -7.2   -8.9   -0.7
H     9.8   -1.0   -6.0
C   -10.4   -5.0   -0.5
H     2.4    8.9   -6.9
I     5.7   -6.3   -7.8
N    -3.6    3.7  -10.3
C   -10.5    0.5   -4.9
H    -3.7  -10.3    3.7
I    -7.4    6.2    6.5
I    -7.2   -7.2    5.6
H   -10.5   -4.3   -2.5
H     3.8    3.9  -10.2
P    -7.4    9.0   -0.7
H     2.5   -9.0   -6.9
H   -10.5   -0.2    5.0
I    -0.9   11.5    1.2
H    -4.0   -0.0   10.9
H    -2.5   -5.0  -10.2
H     3.2   10.1   -5.0
I    -0.8   -2.7  -11.4
H    -3.3   10.1   -5.0
H   -10.5    4.6   -2.5
N   -10.5    5.0   -1.5
H     9.0    3.8    6.5
I     5.6    2.6   10.1
H     1.7  -10.0   -6.0
N    -3.9   -9.4   -6.0
H     8.6   -7.4    3.3
I    -0.7  -11.6   -2.5
H    -4.5   10.5    3.3
H   -11.4    3.3   -0.5
H     7.4    4.3    8.2
H     7.5   -8.7    3.1
H    -5.5    4.3   -9.6
H   -11.3   -3.4   -1.5
I    -0.8   -6.4   10.1
N     2.9   -5.2  -10.3
H    -5.4   -4.6   -9.6
H    -3.9   -9.0   -6.9
I   -10.5    4.2    3.9
H    -4.1    8.9   -6.9
H    -3.0  -10.0   -6.0
H    -4.3    5.6   -9.7
N   -10.4   -0.5   -6.0
H     3.9   -5.0  -10.2
H     7.5   -4.6    8.2
H     1.6   -1.1   11.9
P    -7.2   -0.1   -9.7
I   -10.4   -4.7    3.9
P    12.1    0.0   -0.7
P    -0.9    8.8    8.2
H     3.4  -10.0   -6.0
N    -3.5   -5.2  -10.3
I    -0.9   10.7    5.6
N     2.5   -0.5   11.9
I     8.9    0.1    8.3
H     7.3    9.2    3.1
H     2.8   -6.2  -10.1
P    -0.7   -9.0    8.2
H     2.6    3.9  -11.3
H     8.0   -7.8   -5.0
H     9.1    2.7    7.7
I    -7.3    7.1   -6.9
H     9.1   -5.1    6.5
H    -5.1   10.0   -5.0
H     9.0    7.5    3.7
H   -11.9    0.3    3.1
H    -3.1   -1.1   11.9
N     8.5   -8.4    3.1
H     1.4   12.3   -0.5
I    -7.2   -6.3   -7.8
I     5.8  -10.7    2.0
I    -0.8    1.8  -12.2
H     8.7   -3.3    8.1
H     3.3   -1.1   11.9
I    12.1    2.6    1.2
I     2.5   -8.9    8.3
I   -10.4   -4.4   -5.1
H    -3.7   -6.2  -10.1
I    12.1   -1.8    2.0
I     5.7   -1.9   10.9
H     8.8   -8.6    2.1
I     2.3    9.0    8.3
H     1.6  -12.3   -1.5
H    -9.1    3.9    7.6
N     9.3    3.7    7.5
I     8.8    8.9   -0.6
H   -11.4    1.1   -5.0
H   -10.4   -0.0   -6.9
N    -4.0   -0.5   11.9
I   -10.5    4.5   -5.1
I     5.5   10.8   -3.3
H    -3.8    3.9  -11.3
