         400
 sphere cut out from bulk 
H     1.7   -0.1   -0.6
I    -1.7   -0.5   -0.9
P    -1.1   -0.5    2.4
I     0.9    2.0    1.8
C     2.7   -0.5   -0.9
H    -0.7    3.0    0.1
H     2.8   -1.5   -0.6
I     1.4   -2.5    1.9
H    -0.7    3.0   -1.6
H     2.8   -0.4   -2.0
N    -1.1    3.5   -0.7
H     3.7    0.3    0.7
N     3.8    0.3   -0.3
H    -1.3   -3.7    0.2
H     3.8    1.3   -0.6
H    -2.2    3.3   -0.7
H     0.2   -4.1   -0.8
H    -4.1   -0.0   -0.6
I     0.7    2.1   -3.5
P    -1.2   -0.6   -4.0
H    -1.3   -3.7   -1.6
C    -0.9   -4.2   -0.7
I     1.3   -2.5   -3.6
I    -3.5    1.6    2.7
H     4.7   -0.0   -0.6
C    -0.8    4.9   -0.7
I    -3.1   -2.9    2.8
N    -5.1    0.3   -0.3
H     0.3    5.0   -0.8
H    -5.1    0.3    0.7
H    -5.1    1.3   -0.6
H    -0.5    2.9    4.4
H     2.6    0.1    4.8
H    -1.2    5.4    0.2
H     2.9   -1.7    4.5
I    -0.4   -0.3    5.6
I     4.0    3.8   -0.9
H    -1.3    5.4   -1.6
N    -1.2   -5.6   -0.7
P     3.4    4.1    2.4
C     3.3   -0.8    4.9
I    -3.7    1.5   -4.5
H    -0.8   -6.1    0.1
H     4.3   -0.6    4.5
I    -4.8    3.8   -0.9
H    -2.2   -5.8   -0.7
I     5.4    1.6    2.7
C    -6.1   -0.5   -0.9
C    -1.0    3.8    4.9
H    -2.0    4.0    4.4
H    -6.0   -1.5   -0.6
I    -3.1   -3.1   -4.5
H    -0.8   -6.1   -1.6
H    -6.0   -0.4   -2.0
H    -4.6   -0.6    4.5
P     3.3   -5.0    2.4
H     2.5   -1.3   -5.9
H    -0.4   -4.4    4.7
P     3.3    4.0   -4.0
H    -0.3    4.7    4.7
I     4.0   -5.3   -0.9
H    -0.4    3.3   -5.9
H     3.8   -0.2   -5.9
I     1.4    6.6    1.9
I     5.2    1.5   -4.5
I     5.8   -2.9    2.8
H    -1.9    2.8   -6.2
H    -2.0   -5.1    4.4
H    -7.1   -0.1   -0.6
I    -0.5   -0.3   -7.1
I    -4.9   -5.3   -0.9
P     3.2   -5.1   -4.0
I     7.2   -0.5   -0.9
N     3.4   -1.0   -6.3
P    -5.5    4.1    2.4
C    -1.0   -5.3    4.9
H    -1.8    2.8    6.5
N     3.5   -1.0    6.4
N    -1.2    3.6    6.3
I     0.9   -7.1    1.8
N    -1.3    3.5   -6.4
I    -3.0    6.2    2.8
H     2.6   -1.3    6.8
C    -5.6   -0.8    4.9
I     2.8    4.2    5.6
H     6.7    3.3   -0.7
H    -1.7    4.4   -5.9
H    -0.3    3.3    6.8
H     4.1   -1.8   -6.1
H    -0.6   -6.2    4.4
I     1.4    6.6   -3.6
H    -6.0   -1.7    4.5
H    -5.1   -0.2   -5.9
H    -1.7   -4.7   -5.9
P    -5.5   -5.0    2.4
H    -6.2    0.1    4.8
H     3.9   -0.1    6.8
I     0.7   -7.0   -3.5
I     2.7   -4.9    5.6
P    -5.6    4.0   -4.0
I     5.8   -3.1   -4.5
H     4.2   -1.8    6.6
H    -4.8   -1.8   -6.1
I    -3.0    6.0   -4.5
I    -7.5   -2.5    1.9
H     2.9    7.6   -0.6
P     7.8   -0.5    2.4
H    -1.6    4.4    6.8
H    -4.7   -1.8    6.6
H    -0.4   -5.8   -5.9
H     2.5    0.1   -7.9
N    -5.4   -1.0    6.4
I    -7.9    2.0    1.8
N    -5.5   -1.0   -6.3
H    -1.6   -4.7    6.8
H     7.6   -3.7    0.2
C     3.2   -0.8   -7.8
H    -5.0   -0.1    6.8
N     7.7    3.5   -0.7
N    -1.2   -5.5    6.3
N    -1.3   -5.6   -6.4
P    -5.6   -5.1   -4.0
H     7.5   -3.7   -1.6
H     3.7   -7.8   -0.6
H     8.1    3.0    0.1
I     2.7    4.2   -7.1
P     7.7   -0.6   -4.0
I    -7.5   -2.5   -3.6
H    -6.3   -1.3   -5.9
I    -3.6   -7.5    2.7
P    -1.1   -0.5    8.7
C    -1.1    3.8   -7.8
I    -1.6    8.6   -0.9
H    -0.6    2.9   -8.3
H     8.1    3.0   -1.6
H     6.6   -5.8   -0.7
H     2.8   -1.7   -8.2
H    -0.3   -5.8    6.8
I     5.8    6.2    2.8
P    -1.0    8.6    2.4
C     8.0   -4.2   -0.7
I    -3.6    1.5    8.2
I     2.6   -4.9   -7.1
H    -2.0   -6.4   -6.2
H     6.9    4.0    4.4
C     2.8    8.6   -0.9
I    -8.1    2.1   -3.5
H    -0.5   -4.5   -8.0
H     2.9    7.4    4.5
H     1.8    9.0   -0.6
I    -6.1    4.2    5.6
H    -0.4    4.6   -8.0
I    -3.0   -3.1    8.2
H     4.2   -0.6   -8.2
H    -1.9   -6.3    6.5
H     7.6    5.4    0.2
H     1.7   -9.2   -0.6
H    -6.3   -1.3    6.8
H    -5.2   -7.8   -0.6
H    -2.1    4.0   -8.3
H     2.9    8.7   -2.0
I     0.8    2.1    9.2
H     7.6    5.4   -1.6
C     8.0    4.9   -0.7
H    -4.7   -0.6   -8.2
I     1.4   -2.5    9.1
P    -1.1    8.5   -4.0
I     5.8    6.0   -4.5
N     7.7   -5.6   -0.7
C    -1.1   -5.3   -7.8
N     3.7   -8.8   -0.3
H    -8.6   -4.1   -0.8
H     3.7   -8.8    0.7
I     5.3   -7.5    2.7
I    -3.7   -7.7   -4.5
H     6.8   -5.1    4.4
I    -6.1   -4.9    5.6
C    -5.6   -0.8   -7.8
H    -6.0    7.6   -0.6
H     7.0    2.8   -6.2
I    -1.7   -9.6   -0.9
H     8.3    2.9    4.4
I     5.3    1.5    8.2
H    -4.1    9.1   -0.6
H    -8.6    5.0   -0.8
H    -2.1   -5.1   -8.3
H     7.0    2.8    6.5
P    -1.1   -9.6    2.4
H     9.1   -4.1   -0.8
C     2.7   -9.6   -0.9
C     7.9    3.8    4.9
H    -9.6    3.0    0.1
H    -4.2   -9.1   -0.6
H     2.8   -9.5   -2.0
I     8.4   -0.3    5.6
H     2.6    7.8   -5.9
I    -7.4    6.6    1.9
H     8.1   -6.1    0.1
H    -6.3    0.1   -7.9
I     9.8    2.0    1.8
H     3.8    9.4    0.7
P     3.4    4.0    8.7
N    -5.1   -8.8   -0.3
N     3.8    9.4   -0.3
H    -9.6    3.0   -1.6
P    -9.9   -0.5    2.4
H     8.1   -6.1   -1.6
C     3.3    8.3    4.9
I     5.1   -7.7   -4.5
H    -5.2   -8.8    0.7
H     4.8    9.1   -0.6
H     7.2    4.4   -5.9
H     4.7   -9.1   -0.6
I    -6.2    4.2   -7.1
P    -1.1   -0.5  -10.3
H    -6.1   -1.7   -8.2
H    -0.7   -6.2   -8.3
H     7.1   -4.7   -5.9
I    -0.4    8.8    5.6
H     4.1    7.3   -6.1
I     9.6    2.1   -3.5
H     9.1    5.0   -0.8
H    -5.9    7.4    4.5
I     5.9   -3.1    8.2
N     7.6    3.5   -6.4
P    -1.2   -9.7   -4.0
H     2.6   -9.0    4.8
H     4.3    8.5    4.5
N     7.7    3.6    6.3
I    -2.9    6.0    8.2
I   -10.5   -0.5   -0.9
I    -7.5    6.6   -3.6
C    -9.7   -4.2   -0.7
C    -6.1    8.6   -0.9
N   -10.0    3.5   -0.7
P     3.3   -5.1    8.7
H    10.6   -0.1   -0.6
C     7.8   -5.3    4.9
H    -4.5    8.5    4.5
H     8.5   -4.4    4.7
H    -4.7    7.3   -6.1
N    -5.0    9.4   -0.3
H     2.7    9.2    4.8
I    10.2   -2.5    1.9
I    -6.2   -4.9   -7.1
H    -5.1    9.4    0.7
H     4.2    7.3    6.6
I    -3.6    1.6  -10.0
H     2.7    7.8    6.8
H    -9.4    2.9    4.4
H    -6.0    8.7   -2.0
H     8.5    4.7    4.7
P   -10.0   -0.6   -4.0
H   -10.1   -3.7    0.2
I    -8.0   -7.1    1.8
N     3.5    8.1   -6.3
I    -9.3   -0.3    5.6
I    -3.2   -2.9   -9.9
C    -9.7    4.9   -0.7
H    -4.6    7.3    6.6
H     8.5    3.3   -5.9
H     7.3    4.4    6.8
N     3.5    8.1    6.4
H   -10.2   -3.7   -1.6
I    -0.5   -9.4    5.6
I     8.3   -0.3   -7.1
H     7.2   -4.7    6.8
H     2.8  -10.6   -0.6
P    -5.5    4.0    8.7
H     2.9   -0.4   10.7
I     0.8    2.0  -10.8
H     3.8   10.4   -0.6
I    10.2   -2.5   -3.6
C    -5.5    8.3    4.9
I     1.3   -2.5  -10.8
H     6.9   -6.4   -6.2
H     8.3   -6.2    4.4
I     7.2    8.6   -0.9
H    -9.2   -4.4    4.7
I     1.5    6.6    9.1
I    -0.5    8.8   -7.1
N     7.5   -5.6   -6.4
I    -8.2   -7.0   -3.5
I     1.0   11.1    1.8
H    -9.2    4.7    4.7
N     7.6   -5.5    6.3
H     3.8    8.9   -5.9
I     5.3    1.6  -10.0
H    -9.6   -6.1    0.1
H     2.8    7.4   -8.2
H     6.8    4.0   -8.3
H   -10.1    5.4    0.2
H     8.6    3.3    6.8
H    -9.2    3.3   -5.9
C    -6.2   -9.6   -0.9
H    -6.1   -9.5   -2.0
H     7.0   -6.3    6.5
H     4.2   -9.7    4.5
H    -7.1    9.0   -0.6
P    -5.5   -5.1    8.7
C     3.2   -9.9    4.9
H    -9.6   -6.1   -1.6
H    -0.6    3.0   11.1
N   -10.0   -5.6   -0.7
H   -11.0    3.3   -0.7
I     0.8   -7.0    9.2
P     3.3    4.1  -10.3
I    -3.4   10.7    2.7
H   -10.1    5.4   -1.6
H     3.7   -9.3   -5.9
H    -5.0   10.4   -0.6
N    -5.3    8.1    6.4
N    -5.4    8.1   -6.3
C    11.6   -0.5   -0.9
C    -9.8    3.8    4.9
H    -4.6   -9.7    4.5
H    -6.3    7.8   -5.9
H    -7.2   -9.2   -0.6
C     7.8    3.8   -7.8
P     7.8   -0.5    8.7
H    -1.2   -3.7   11.1
I     5.9    6.0    8.2
I     0.8   11.2   -3.5
H    11.7   -1.5   -0.6
I    -3.6   -7.6    8.2
I    -9.4   -0.3   -7.1
H    -5.0    8.9   -5.9
I     5.7   -2.9   -9.9
H     8.4   -5.8   -5.9
H    -9.1    3.3    6.8
I    -0.6   -9.4   -7.1
I     1.3  -11.6    1.9
C     3.3    8.3   -7.8
H     6.7   -5.1   -8.3
H    11.7   -0.4   -2.0
P     3.2   -5.0  -10.3
P     7.9    8.6    2.4
H     3.9    9.0    6.8
I    -1.6   -0.5   11.8
I    -7.4   -2.5    9.1
I     7.1   -9.6   -0.9
H    -6.3   -9.0    4.8
H     8.2    2.9   -8.3
I    -3.6   10.6   -4.5
H     2.8  -10.8    4.5
H    -6.2    9.2    4.8
C     2.8   -0.5   11.8
H    -5.1   -9.3   -5.9
I    -3.1    6.2   -9.9
H    -6.2    7.8    6.8
H     3.8   -9.3    6.8
H    -0.7   12.1    0.1
H    -9.4   -6.2    4.4
I     9.7   -7.1    1.8
H     2.5  -10.4   -5.9
C     7.7   -5.3   -7.8
P     7.8    8.5   -4.0
H    -5.9   -0.4   10.7
H     1.8   -0.1   12.1
P    -1.0    8.6    8.7
I     1.3  -11.6   -3.6
H    -0.7   12.1   -1.6
C    -9.9   -5.3    4.9
H    -6.1  -10.6   -0.6
H     2.5   -9.0   -7.9
I     5.4   10.7    2.7
H    -4.9    9.0    6.8
H     8.5   -5.8    6.8
I     9.5   -7.0   -3.5
H   -10.8    4.0    4.4
I    10.3    6.6    1.9
I    -8.0    2.1    9.2
H    -1.2    5.4   11.1
N   -10.0    3.6    6.3
I     5.2   -7.6    8.2
H     2.6    9.2   -7.9
N     3.3  -10.1   -6.3
H     8.4   -4.5   -8.0
C    -5.6   -9.9    4.9
P    -5.6    4.1  -10.3
H    -9.3   -5.8   -5.9
H    11.5    0.1    4.8
N     3.4  -10.1    6.4
N   -10.1    3.5   -6.4
H     2.9   -1.5   12.1
H     8.4    4.6   -8.0
N    -1.0    3.5   12.0
H     3.6    0.3  -12.0
H   -11.1   -5.8   -0.7
H    -5.0   -9.3    6.8
P     7.7   -9.6    2.4
H     4.2    8.5   -8.2
H    -6.0    7.4   -8.2
H    12.6    0.3    0.7
H    -2.1    3.4   12.0
I   -11.9   -2.9    2.8
I     5.3   10.6   -4.5
H     0.3   -4.1   11.9
N    -1.1   12.6   -0.7
H    -2.1   12.4   -0.7
