         400
 sphere cut out from bulk 
P     0.8   -0.1    0.7
I    -1.2    0.3   -1.8
I    -1.8   -0.6    2.6
H    -2.3    2.3    0.9
H     0.3    2.2   -2.6
I     0.9   -3.3    0.0
I     0.7    3.0    1.3
I     3.3    0.4   -1.2
H    -2.7   -2.3    1.0
H     1.7    2.9   -2.0
H    -2.8    2.9   -0.7
C    -3.1    2.7    0.3
N     0.9    3.0   -2.7
H    -0.5   -2.4   -3.5
I     2.7   -0.6    3.3
H    -4.0    1.9    0.3
H     1.5   -3.3   -2.6
H    -3.0   -3.2   -0.5
N    -3.1   -3.2    0.6
H     0.4    3.8   -2.4
H     0.6    2.6    3.8
H     4.1   -2.3    0.5
H    -2.7   -4.0    1.0
H    -0.1   -3.3    3.8
H     1.9   -2.4   -4.0
N     1.4   -3.3   -3.6
C    -0.0   -3.3   -4.0
H     1.7    1.6    4.7
H     2.0    2.2   -4.3
P    -3.8   -0.1   -3.7
C     1.5    3.1   -4.1
N     0.9    2.3    4.8
N    -3.6    3.9    1.0
H    -0.5   -4.2   -3.5
H    -2.9    4.6    1.1
H     5.2    1.9    0.3
H    -5.0   -2.3    0.5
C     4.6   -3.2    0.9
H     0.2    1.8    5.3
C    -4.6   -3.2    0.9
H    -4.0    3.6    2.0
H     1.9   -2.4    4.9
H     0.6    3.2   -4.7
I    -3.7   -3.3   -3.0
H     4.1   -4.1    0.5
H    -0.5   -2.4    5.3
H     4.5   -3.2    2.0
C     0.0   -3.3    4.9
I    -5.8    0.4   -1.2
H    -4.7   -3.2    2.0
H    -0.1   -3.3   -5.0
H     1.9   -4.1   -4.0
I    -1.2    5.7   -1.7
H     2.1    4.0   -4.1
H    -4.4    4.3    0.5
I     2.8   -0.6   -5.6
P    -3.7   -0.0    5.1
P     0.8    6.2    0.7
N     1.4   -3.3    5.3
H     4.7    4.3    0.5
P     0.8   -6.4    0.7
H    -5.0   -4.1    0.5
I    -3.9    3.0   -4.3
P     5.4   -0.1   -3.7
I    -1.8   -0.6   -6.3
C     6.0    2.7    0.3
H     5.2    3.6    2.0
H     1.9   -4.1    4.9
I    -1.8   -5.9    2.5
C     1.5    3.4    5.5
I    -3.9    3.1    4.5
I     3.4    5.7   -1.2
H     2.3    3.9    5.0
H    -0.4   -4.2    5.3
N     6.0   -3.2    0.6
N     5.5    3.9    1.0
H     6.1   -3.2   -0.5
H     6.5   -2.3    1.0
H     6.3    2.9   -0.7
I     5.4   -3.3   -3.0
H     0.7    4.2    5.6
I    -1.2    0.5    7.0
I    -6.4   -0.6    3.3
I    -1.2   -6.9   -1.7
H     6.8    2.3    0.9
H     1.6   -3.3    6.3
I     2.8   -5.9    3.2
I    -1.8    6.7    2.5
P     5.4   -0.0    5.1
H     1.8    3.1    6.5
I     5.3    3.0   -4.3
I    -3.6   -3.2    5.8
I     5.2    3.1    4.5
H     6.5   -4.0    1.0
I     3.4   -6.9   -1.2
I     7.4   -0.6    2.6
H     6.3    4.6    1.1
I     2.8    6.7    3.2
P    -3.7    6.1   -3.7
P     0.8   -0.1   -8.1
I    -5.8    5.7   -1.2
I     8.0    0.3   -1.8
H    -7.4    2.9   -2.0
I     0.7    3.0   -7.6
I     3.4    0.4    7.5
P    -8.3   -0.1    0.7
P    -3.7   -6.5   -3.7
I    -6.4   -0.6   -5.6
I     2.8   -5.9   -5.6
I     5.5   -3.2    5.8
H    -2.9   -8.0    1.1
H    -2.1    3.0   -7.8
H    -7.1    2.2   -4.3
H    -2.7   -2.5   -7.8
H    -7.3   -2.4   -4.0
H    -7.6   -3.3   -2.6
H     4.4   -3.3   -6.8
I    -1.8   -5.9   -6.2
I    -8.2   -3.3    0.0
H    -4.3    2.1   -7.4
H    -4.7   -3.3   -6.8
P    -3.7    6.3    5.2
H    -7.5    1.6    4.7
P     5.4    6.1   -3.7
P    -3.7   -6.3    5.2
H    -7.2   -2.4    4.9
H    -2.7    8.6    1.0
H    -7.0    4.0   -4.1
I    -5.8   -6.9   -1.2
I    -8.5    3.0    1.3
H     4.8    2.1   -7.4
I     2.8    6.7   -5.6
H     0.4   -8.8   -2.4
H    -2.5    2.3    8.5
N    -8.2    3.0   -2.7
N    -7.7   -3.3   -3.6
H    -0.5    8.5   -3.5
P     5.4   -6.5   -3.7
I    -6.3   -5.9    3.2
I    -1.2    5.8    7.1
C    -7.7    3.1   -4.1
H    -2.7   -4.1   -7.8
H    -7.3   -4.1   -4.0
H    -6.8    3.9    5.0
I    -1.8    6.7   -6.2
I     0.9    9.3    0.0
H    -4.4   -8.3    0.5
I     0.9   -3.2    8.8
N    -3.2   -3.3   -8.2
H    -4.3    3.9   -7.4
H    -8.8    2.2   -2.6
I     0.8   -3.3   -8.8
H    -3.0   -3.2    8.4
H     4.1    8.5    0.5
I    -5.8    0.4    7.5
N    -2.8    3.0   -8.6
N    -3.7   -8.7    1.0
H     4.0   -2.4   -8.3
H     4.7   -8.3    0.5
C    -4.2    3.0   -8.0
P     0.9   -0.0    9.5
H     1.9    8.5   -4.0
H     8.6   -2.4   -3.5
H    -7.2   -4.1    4.9
C     4.5   -3.3   -7.9
H     4.8    3.9   -7.4
I     7.3   -0.6   -6.3
I     0.7   -9.6    1.3
H    -8.5    2.6    3.8
H    -2.5    4.0    8.5
C    -4.6   -3.3   -7.9
I     7.3   -5.9    2.5
P     5.4    6.3    5.2
N    -8.2    2.3    4.8
H    -2.6    2.2   -9.2
H     2.1   -8.6   -4.1
I    -6.3    6.7    3.2
P     5.4   -6.3    5.2
H     1.5    9.3   -2.6
H    -8.8    3.8   -2.4
N    -7.7   -3.3    5.3
I    -1.2   -6.8    7.1
H    -3.0    9.4   -0.5
C     4.9    3.0   -8.0
H    -5.0    8.5    0.5
N    -3.1    9.4    0.6
I     8.0    5.7   -1.7
N    -2.7    3.1    9.1
H    -0.4    8.4    5.3
H     1.9    8.5    4.9
P    10.0   -0.1    0.7
H    -4.0   -9.0    2.0
N     0.9   -9.6   -2.7
H    -5.1   -2.4   -8.3
H     9.5    2.2   -2.6
C    -7.7    3.4    5.5
H    -0.1    9.3    3.8
H     1.7   -9.7   -2.0
H    -2.8   -9.7   -0.7
N     1.4    9.3   -3.6
H     4.0   -4.2   -8.3
H     0.7   -8.4    5.6
C    -0.0    9.3   -4.0
P     0.8    6.2   -8.1
H     8.6   -4.2   -3.5
I     3.4    5.9    7.6
H     6.2   -8.0    1.1
I     7.3    6.7    2.5
H     4.3    3.1    8.7
H    -2.6    3.9   -9.1
H    -7.3    3.1    6.5
H     4.3    3.0   -8.9
H    -8.5    3.2   -4.7
H    -3.1   -3.3   -9.3
H     2.3   -8.7    5.0
I    -6.4   -5.9   -5.6
I     9.8    3.0    1.3
N     5.5   -8.7    1.0
P     0.8   -6.4   -8.1
H     9.1   -3.3    3.8
H    -7.6   -3.3    6.3
P    -8.3    6.2    0.7
N    -3.1   -3.2    9.4
H     6.4   -2.5   -7.8
H    -2.6   -2.3    9.8
C     1.4   -9.5   -4.1
C    -3.2   -9.9    0.3
C     9.1   -3.3   -4.0
H     8.7   -2.4    5.3
H    -4.8    3.1    8.7
H     4.1   -2.3    9.3
I    -3.7    9.3   -3.0
I   -10.3    0.3   -1.8
H    -2.0    3.1    9.8
H    -9.2   -3.3    3.8
P    -8.3   -6.4    0.7
H     0.6   -9.4   -4.7
C    -4.6    9.4    0.9
C     4.6    9.4    0.9
C    -9.2   -3.3   -4.0
I     0.8    3.1   10.0
H     5.2   -9.0    2.0
C     0.0    9.3    4.9
H    -9.6   -2.4   -3.5
H     9.5    3.8   -2.4
I    10.1   -3.3    0.0
H    -4.9    3.0   -8.9
I     7.9    0.5    7.0
H    -5.1   -4.2   -8.3
H    -9.0    1.8    5.3
H    -0.1    9.3   -5.0
I     3.3    0.3  -10.1
H     4.5    9.4    2.0
H    -2.7   10.3    1.0
H    -2.3  -10.4    0.9
I     7.9   -6.9   -1.7
N     5.9   -3.3   -8.2
I     3.4   -6.7    7.6
H    -4.6    9.4    2.0
I    -1.3    0.4  -10.6
I    -6.4    6.7   -5.6
H     0.3  -10.5   -2.6
H     0.6  -10.1    3.8
H     9.8    2.6    3.8
C     1.5   -9.2    5.5
H     6.5    8.6    1.0
N     1.5    9.3    5.3
H     9.0   -3.3   -5.0
H    -5.0   -2.3    9.3
H    -0.5   10.2   -3.5
H     6.1   -3.2    8.4
N    10.1    3.0   -2.7
C    -9.1   -3.3    4.9
H     9.3    1.8    5.3
C     9.1   -3.3    4.9
C    -4.1    3.1    9.6
H     6.4   -4.1   -7.8
H    -2.6   -4.0    9.8
H     7.0    3.0   -7.8
H     6.6    2.3    8.5
H    -8.5    4.2    5.6
H     4.1   -4.1    9.3
H     8.7   -4.2    5.3
H    -9.3   -3.3   -5.0
N     6.3    3.0   -8.6
H    -9.7   -4.2   -3.5
H     1.9   10.2   -4.0
H     4.1   10.3    0.5
N     6.0    9.4    0.6
I    -3.9   -9.6   -4.3
I    -3.9   -9.5    4.5
I     5.5    9.3   -3.0
I    -5.7    5.9    7.6
I   -10.9   -0.6    2.6
H    -9.6   -2.4    5.3
C    -4.6   -3.2    9.8
H     6.1    9.4   -0.5
C     4.6   -3.2    9.8
H    -4.2    2.2   10.2
C     5.0    3.1    9.6
I     7.3   -5.9   -6.2
H     9.7    3.2   -4.7
H    -5.0   -4.1    9.3
H    -4.0  -10.7    0.3
H     1.6    9.4    6.3
N    10.1    2.3    4.8
N     0.9  -10.3    4.8
H    10.7   -3.3   -2.6
H     2.0  -10.4   -4.3
H     1.9   10.2    4.9
H    10.9    2.9   -2.0
H     6.5    2.2   -9.2
P     0.9    6.3    9.5
H     6.6    4.0    8.5
P     0.9   -6.3    9.5
H    -5.0   10.3    0.5
I    -1.7   -0.5   11.4
H     4.9    2.2   10.2
H    -0.4   10.2    5.3
N     6.4    3.1    9.1
H     6.1   -3.3   -9.3
H     6.3   -9.7   -0.7
N    10.5   -3.3   -3.6
C     6.0   -9.9    0.3
N     6.0   -3.2    9.4
I    -3.6    9.4    5.8
P    -8.3   -0.1   -8.1
H     1.7    3.0  -11.1
I    -5.8   -6.7    7.6
H     1.8   -9.5    6.5
I    -5.9    0.3  -10.1
H   -11.4    2.3    0.9
I     5.2   -9.5    4.5
I     7.4    6.7   -6.2
H    -9.6   -4.2    5.3
I     5.3   -9.6   -4.3
H    -4.2    4.0   10.2
I    -8.5    3.0   -7.6
C    10.6    3.1   -4.1
P    10.0    6.2    0.7
H    -2.7    8.5   -7.8
H     5.2  -10.7    0.3
P    10.0   -6.4    0.7
H    10.8    1.6    4.7
H    -7.1   -8.6   -4.1
H    -7.3    8.5   -4.0
H     6.5    3.9   -9.1
H     1.5   -3.4  -11.3
I   -10.3    5.7   -1.7
H    11.0   -2.4   -4.0
H     6.5   -2.3    9.8
H     4.9    4.0   10.2
H     0.1  -10.8    5.3
I     3.3    5.8  -10.0
I    -1.3    5.7  -10.6
H     9.8    4.2    5.6
H   -11.8   -2.3    1.0
I     7.9    5.8    7.1
H     1.6  -11.1    4.7
H    -7.2    8.5    4.9
H    11.1    2.2   -4.3
H     4.5   -3.2   10.8
H    -6.8   -8.7    5.0
H     6.5   10.3    1.0
H    -4.6   -3.2   10.8
H    -4.3   -8.7   -7.4
I     0.7   -9.6   -7.6
N    10.6   -3.3    5.3
H    11.1   -2.4    4.9
H    -7.6    9.3   -2.6
H   -12.0    2.9   -0.7
I    11.9   -0.6    3.3
H     4.4    9.3   -6.8
I     5.5    9.4    5.8
I     2.9   -0.5   12.0
H    -2.5   -8.6    8.5
H    -7.4   -9.7   -2.0
H    11.0   -4.1   -4.0
H     0.1    1.7  -12.3
H     4.8   -8.7   -7.4
H     6.8  -10.4    0.9
I    -8.2    9.3    0.0
H     6.5   -4.0    9.8
H    -4.7    9.3   -6.8
I    -1.8   12.0    2.6
C    10.6    3.4    5.5
I    -8.2   -3.2    8.8
H     4.1    8.4   -8.3
I    -1.2  -12.3   -1.8
I   -10.4    0.5    7.0
H   -11.8   -4.0    1.0
P     0.9   12.5    0.7
H     7.1    3.1    9.8
I    12.5    0.4   -1.2
I   -10.3   -6.9   -1.7
I    -8.3   -3.3   -8.8
I     3.3   -6.8  -10.0
H    -2.1   -9.6   -7.8
C   -12.3    2.7    0.3
H    -0.5   -2.5  -12.3
