         400
 sphere cut out from bulk 
I     0.6    0.9    1.2
P    -1.1   -1.2   -0.4
I    -1.5    1.2   -2.5
I     1.3   -2.4   -2.0
P    -0.1    3.4   -0.5
H     2.9   -1.3    1.7
I    -3.7   -0.1    1.3
H     3.2   -0.2   -2.3
H    -0.5    0.2    4.0
I    -0.8   -3.5    1.9
H     2.3   -0.9    3.3
H     1.5   -3.1    2.6
C     2.9   -1.5    2.8
H    -1.3    1.8    3.8
C    -1.2    1.0    4.4
H    -4.0    1.2   -2.3
H    -3.0    0.1    3.7
I    -3.0   -3.3   -1.9
N     2.5   -3.0    2.9
H    -4.8    0.7   -0.9
C     4.2   -0.1   -2.7
H     4.3    1.9   -1.9
H    -1.6   -2.3   -4.2
I     2.7    3.8   -2.0
H     4.9    0.7   -0.9
H    -0.6   -1.0   -5.1
H     4.0   -1.4    3.2
N     4.8    1.0   -1.9
N    -2.5    0.4    4.6
H     3.1   -3.6    2.4
N    -4.9    1.0   -1.9
H     4.8   -1.0   -2.6
I    -2.8    4.8   -0.1
H     4.1    0.2   -3.7
H    -0.8    1.3    5.4
C    -1.0   -2.1   -5.1
H     2.5   -3.3    3.9
H    -5.0   -1.0   -2.6
I     1.3    5.4    1.5
H    -2.4   -0.5    5.3
H    -0.2   -2.8   -5.2
H     3.7   -4.2   -2.3
H    -3.1    1.0    5.1
P    -2.6   -5.5    0.3
H    -5.5    1.9   -1.9
C    -5.6   -0.1   -2.7
I     6.1   -0.1    1.3
H     5.8    1.2   -2.3
H     2.4   -5.4   -2.4
I     2.0    0.2    6.1
H    -5.8   -1.4    3.2
H    -5.6    0.2   -3.7
C     3.5   -5.3   -2.5
N    -1.9   -2.2   -6.3
H    -6.6   -0.2   -2.3
H    -2.7   -1.6   -6.3
H    -0.2    6.3    3.4
I     4.4   -5.4    1.3
P     4.1    5.8    0.2
H    -6.8   -1.3    1.7
H    -1.0   -5.0    5.2
H     4.1   -5.9   -1.8
H    -2.3   -3.2   -6.4
C    -6.8   -1.5    2.8
H     3.3   -5.0   -4.6
H    -2.8   -4.9    5.0
H    -1.4   -2.0   -7.2
H    -6.0   -4.2   -2.3
I     6.7   -3.3   -1.9
H     6.8    0.1    3.7
I    -5.4   -5.4    1.3
I    -1.8   -2.0    7.3
N     3.9   -5.6   -3.9
I     2.3   -4.4    6.2
H    -6.6   -3.6    2.4
H     3.7    5.5   -4.5
C    -2.0   -5.4    5.6
N    -0.7    7.0    3.9
H    -1.5    6.7    4.5
P    -5.7    5.8    0.2
H    -7.5   -0.9    3.3
I    -3.9    2.8    6.7
H    -1.9    7.7    2.3
I     2.4   -4.1   -6.7
I    -7.1    3.8   -2.0
I     4.8   -0.1   -6.7
H     1.9   -7.2    3.6
H     4.9   -5.4   -4.1
I    -1.5   -7.9    2.1
H    -4.9   -5.4   -4.1
I    -4.9   -0.1   -6.7
N    -7.2   -3.0    2.9
I     6.9    4.8   -0.1
P     1.2   -2.1    8.0
H    -5.7   -5.9   -1.8
H     2.4    6.7   -4.5
H     6.6    1.0    5.1
I    -2.7   -7.8   -1.8
C    -6.3   -5.3   -2.5
N     7.2    0.4    4.6
H     3.7   -6.6   -4.2
H    -2.0   -7.2    4.4
H     0.0    7.3    4.6
C     3.2    6.3   -5.0
H     3.2   -7.7    2.4
H    -2.1   -5.2    6.7
C    -1.1    8.1    3.0
I     8.3    1.2   -2.5
P     8.7   -1.2   -0.4
H    -0.2    8.4    2.4
I    -3.6    4.7   -6.5
H    -7.2   -3.3    3.9
H     1.5   -8.4    2.3
C     2.3   -8.0    3.0
N    -2.1   -6.9    5.4
H     3.0    6.0   -6.0
I    -8.4   -2.4   -2.0
N    -5.9   -5.6   -3.9
I    -3.2   -5.5   -6.4
H     7.3   -0.5    5.3
I     1.9    3.8   -8.0
P     7.2   -5.5    0.3
P     3.1    2.3    8.3
H    -8.2   -3.1    2.6
I     3.7    8.3   -1.8
I    -9.1    0.9    1.2
I     5.8    2.8    6.7
P     2.9   -1.7   -8.7
H    -6.1    5.5   -4.5
H    -6.4   -5.0   -4.6
I     0.2    3.5    8.8
H     8.4    1.8    3.8
H    -7.3   -5.4   -2.4
H     8.1   -2.3   -4.2
I    -0.1   -1.6   -9.4
H     7.0   -1.6   -6.3
H    -1.9   -8.4   -4.2
H    -1.3   -7.4    5.9
P    -0.9    5.2   -8.0
I     0.1    7.6   -6.0
C     8.6    1.0    4.4
H    -1.5    8.9    3.6
H    -3.0   -7.3    5.8
I    -4.9    8.2    2.1
I     8.9   -3.5    1.9
I     4.9    8.2    2.1
H     4.4    7.7   -4.2
I    -7.7    0.2    6.1
H    -6.1   -6.6   -4.2
H     7.0   -4.9    5.0
N     4.3    7.4   -5.1
H    -4.6    6.9   -5.5
P     4.7    2.6   -8.4
H     9.2    0.2    4.0
H    -2.4   -8.0   -5.7
I     6.2    4.7   -6.5
I    -8.5    5.4    1.5
P    -5.0    2.6   -8.4
P     9.6    3.4   -0.5
H     5.1    6.9   -5.5
H    -5.3    7.7   -4.2
H    -3.0   -2.4    9.5
N     2.7   -9.1    3.9
N     7.8   -2.2   -6.3
H     7.5   -3.2   -6.4
P    -2.5    4.9    8.7
C     8.7   -2.1   -5.1
C    -6.5    6.3   -5.0
N    -2.1   -8.8   -5.1
H     0.7   10.2   -1.8
I    -6.1    8.3   -1.8
I     1.4    8.0    6.6
I    -2.9    7.4    6.8
H    -6.6   -7.7    2.4
P    -9.9    3.4   -0.5
H     0.3    9.6   -4.2
I    10.4    0.9    1.2
H     3.4   -8.8    4.6
I     3.2   -0.5   10.0
H     9.1   -1.0   -5.1
N    -5.5    7.4   -5.1
H     9.0    1.3    5.4
P    -2.3  -10.3    0.2
I    -7.4   -4.4    6.2
H     1.9   -9.5    4.5
I     6.6   -5.5   -6.4
I     7.1   -7.8   -1.8
H     4.0    8.2   -5.7
I    -2.3    3.2  -10.0
H    -1.2   -9.2   -5.5
I     1.0   10.7    1.3
I    -7.4   -4.1   -6.7
H    -6.8    6.0   -6.0
P    -6.6    2.3    8.3
H     3.2   -9.9    3.4
H     4.4    9.0    4.4
P   -10.9   -1.2   -0.4
H    -7.4    6.7   -4.5
I     0.7   -4.5   10.0
I     3.4   -8.5   -6.0
H    -1.0   10.7   -2.4
C     7.8   -5.4    5.6
I     8.0   -2.0    7.3
H   -10.3    0.2    4.0
P     2.6   -6.8    8.4
I     0.5   -8.8    6.8
H     3.4    8.9    5.8
H    -0.4   -4.8  -10.1
C     0.1   10.9   -2.5
H    -4.0   -9.4   -4.5
P    -6.9   -1.7   -8.7
H     8.4   -2.0   -7.2
H     9.5   -2.8   -5.2
I     3.7    0.6  -10.6
P     3.8   10.6    0.3
H    -7.9   -7.2    3.6
N     0.5   10.6   -3.9
H     7.9    7.7    2.3
N    -3.6   -2.6   10.4
I   -10.6   -3.5    1.9
H    -5.3    9.0    4.4
P     4.3   -6.4   -8.4
H     8.7   -5.0    5.2
C    -7.5   -8.0    3.0
I     0.5  -11.4   -0.1
H     7.7   -5.2    6.7
H     0.8    1.7  -11.3
H     7.8   -7.2    4.4
C    -3.1   -9.8   -5.0
H    -0.8   -0.1  -11.4
H    -4.4   -1.9   10.4
I    11.1   -2.4   -2.0
H     6.8   -7.3    5.8
I     4.7   -8.2    6.6
H     8.3    6.7    4.5
H    -5.8    8.2   -5.7
I   -11.2    1.2   -2.5
H    -4.7    8.7    5.9
N     4.3    9.3    5.4
H   -10.0   -2.8   -5.2
H   -10.4   -1.0   -5.1
H     1.5   10.8   -4.1
I    -5.0   -8.2    6.6
H    -3.9   -3.5   10.4
I     8.3   -7.9    2.1
N     7.7   -6.9    5.4
H     5.1    8.7    5.9
H    -1.5    1.4  -11.6
H    -6.3   -8.8    4.6
I     4.7  -10.7    1.5
H   -11.1    1.8    3.8
I    -7.9    3.8   -8.0
C   -10.9    1.0    4.4
P    -5.5   -6.4   -8.4
H    -2.7  -10.7   -4.5
H     9.5    6.3    3.4
H     6.7   -2.4    9.5
P    -8.5   -2.1    8.0
H     5.4   -1.9   10.4
H   -10.6    1.3    5.4
H    -2.3   -1.4   11.6
H     5.8   -9.4   -4.5
I     4.0   -4.0  -10.5
H    11.3   -3.1    2.6
I    -6.6   -0.5   10.0
I    -5.1  -10.7    1.5
H    -8.2   -8.4    2.3
I     4.5    4.3   10.2
N    -5.4    9.3    5.4
H    -0.1   11.2   -4.6
H    -1.8   -3.1   11.5
N     9.1    7.0    3.9
C   -10.8   -2.1   -5.1
N    -0.9    0.7  -12.1
P    -5.9   10.6    0.3
C    -2.7   -2.4   11.6
H     1.3    5.6   10.7
H     0.3   11.9   -2.3
I     6.9    7.4    6.8
N    -7.1   -9.1    3.9
I    -6.3   -8.5   -6.0
C    -0.3   -5.0  -11.1
H     7.8   -8.4   -4.2
C     8.7    8.1    3.0
H   -10.0    6.3    3.4
H     7.3   -8.0   -5.7
I    -6.1    0.6  -10.6
I    -5.2    4.3   10.2
H    -3.4  -10.2   -6.0
H   -11.4   -2.3   -4.2
P     7.2    4.9    8.7
H    -6.3    8.9    5.8
H    -6.6   -9.9    3.4
C     0.5    1.3  -12.3
N     6.2   -2.6   10.4
I    11.0    5.4    1.5
H     5.8   -3.5   10.4
H     0.6   -4.7  -11.5
H    12.0   -0.9    3.3
P    -0.8    9.4    8.4
H    -1.2   -4.6  -11.7
I    -1.2    7.7   -9.9
I    -5.8   -4.0  -10.5
H     8.3    8.9    3.6
H     8.5   -7.4    5.9
P     7.4  -10.3    0.2
N     7.7   -8.8   -5.1
H    -0.3   12.5    2.4
H     3.6   11.2    5.0
I    -4.8   -5.8   10.3
H     1.1    0.6  -12.7
I     3.2   10.7   -6.4
I     4.9   -5.8   10.3
P     0.9    9.7   -8.4
H    12.7   -1.3    1.7
C     4.4   10.7    5.6
H     0.3   -7.0  -10.8
C     6.6   -9.8   -5.0
I     7.5    3.2  -10.0
P    -7.1   -6.8    8.4
N    12.3   -3.0    2.9
H     9.5    8.4    2.4
H   -10.8   -5.0    5.2
I    -3.7  -12.3   -2.0
H    -1.3   -6.9  -10.9
H    -4.4   11.1    5.2
I    -1.6    7.2   10.7
H    -9.7    7.3    4.6
P     8.9    5.2   -8.0
N    -0.4   -6.5  -11.3
H     9.8    7.3    4.6
H    -1.3    0.5  -13.0
C    12.7   -1.5    2.8
H    -7.9   -9.5    4.5
N   -12.3    0.4    4.6
H    12.9   -0.2   -2.3
H     0.3    2.2  -12.9
I    -0.2  -11.4   -6.5
N   -10.4    7.0    3.9
I    12.4    3.8   -2.0
P     3.3  -12.7   -0.5
H    -3.2   -2.6   12.5
I     2.2   -8.4   -9.9
C     1.6    5.9   11.7
H     2.5   -0.1   13.0
I    -3.4   -7.8  -10.1
H   -12.7    0.1    3.7
C    -5.4   10.7    5.6
I    11.8    0.2    6.1
H   -10.0    8.4    2.4
H   -12.2   -0.5    5.3
H    12.3   -3.3    3.9
I    -8.4    8.0    6.6
I   -12.8   -3.3   -1.9
I    -1.1   11.8    6.2
H     5.3   11.1    5.2
H     1.7   -5.3   12.1
I    -9.5    3.5    8.8
I     3.4   12.8   -1.9
I    -4.2   12.6    1.9
H     6.4  -10.2   -6.0
H    -1.9   13.0    2.6
H   -11.2   -2.0   -7.2
H     2.0    5.1   12.3
N   -11.7   -2.2   -6.3
H     3.5    6.6   11.2
I     3.0    8.3  -10.1
H    -0.9   12.9    3.9
I   -12.6    4.8   -0.1
P   -12.3   -5.5    0.3
I   -13.4   -0.1    1.3
N    -0.9   13.2    2.9
H     4.3   11.0    6.7
H    12.2   -5.4   -2.4
I     9.6   -1.6   -9.4
H     7.1  -10.7   -4.5
H    12.9   -3.6    2.4
H     8.5   -9.2   -5.5
H     2.3    7.8   11.0
I    -9.7    7.6   -6.0
I    10.0    3.5    8.8
I    -9.9   -1.6   -9.4
P     2.5  -10.9   -8.0
H    -6.2   11.2    5.0
P    11.0   -2.1    8.0
I     9.8    7.6   -6.0
H     0.7    6.3   12.2
H     4.2   -2.9  -12.8
I    -1.0   12.0   -6.7
H    -9.1   10.2   -1.8
N     2.6    7.0   11.6
I   -11.5   -2.0    7.3
H   -11.2    6.7    4.5
C     7.1   -2.4   11.6
C   -10.9    8.1    3.0
I     6.1  -12.3   -2.0
I   -11.2   -7.9    2.1
H     7.5   -1.4   11.6
I    -8.8   10.7    1.3
I     5.6   12.6    1.9
