         400
 sphere cut out from bulk 
P     0.3   -0.0    0.5
I    -1.0   -2.0   -1.6
I    -0.7    2.2   -1.6
I     2.8   -0.1   -1.6
I    -2.1    0.2    2.6
I     1.4   -2.1    2.6
I     1.6    2.1    2.6
P     0.3   -0.1   -3.7
H    -3.4   -2.5   -0.8
H    -0.1    4.5   -0.8
H    -4.1   -1.7    1.4
P     0.3   -0.0    4.7
H     4.3   -2.0   -0.8
H     1.0    4.7    1.4
H     3.9    2.0   -2.6
H     4.0   -3.0    1.4
N    -4.4   -2.7   -0.5
H    -3.6   -3.4    1.4
C    -4.4   -2.7    1.0
H    -0.8    5.0    1.4
H    -3.2    2.8   -3.1
H    -3.7    1.9    3.4
N     0.2    5.4   -0.4
H    -5.0   -2.0   -0.8
H    -0.5   -4.7   -2.7
C     0.2    5.4    1.1
H     5.2   -1.7    1.4
N     4.9   -2.7   -0.5
C     4.9   -2.7    1.0
H     1.1    5.6   -0.8
H     4.0    2.5    3.4
H     3.3    2.8   -4.0
H     1.2   -5.1   -2.7
N     4.0    2.8   -3.3
H     4.6   -3.6   -0.8
H    -4.7   -3.6   -0.8
H     3.9    3.7   -2.8
H    -3.9    1.7   -4.4
H     1.0   -4.7    3.7
I    -2.1    0.0   -5.8
H    -0.5    6.1   -0.8
C    -3.9    2.7   -3.9
C     0.2   -5.4   -3.1
H    -0.8   -5.0    3.7
I     1.6    2.0   -5.7
H    -5.4   -3.0    1.4
N    -4.4    2.7    3.8
H    -4.1    3.6    3.4
H    -5.5    2.0   -2.6
I     1.5   -2.2   -5.8
H     5.9   -2.5   -0.8
H     0.3    6.4    1.4
H     0.6   -4.4   -4.9
C     0.2   -5.4    4.0
N     4.9    2.7    3.8
I    -6.5   -0.1   -1.6
H    -5.3    2.5    3.4
H     5.7   -3.4    1.4
H     5.6    1.9    3.4
N    -5.3    2.8   -3.3
H    -0.0   -6.4   -2.8
H    -3.8    3.5   -4.7
N     0.2   -5.3   -4.6
I     3.5    6.0   -1.7
H    -5.4    3.7   -2.8
I    -1.0    2.0    6.8
C     5.4    2.7   -3.9
H     5.2    3.6    3.4
H     5.4    1.7   -4.4
I     3.8   -5.9   -1.6
H    -3.4    3.0    5.6
I    -0.9   -2.2    6.8
I    -3.3    5.8    2.6
I    -3.2   -6.1    2.6
C    -4.4    2.7    5.2
I     2.7   -0.1    6.9
H     0.3   -6.4    3.7
H    -0.1   -4.5    5.9
H    -4.6    1.6    5.6
H     6.1    2.8   -3.1
H    -0.7   -5.5   -5.0
H     4.7    1.6    5.6
I     7.2    0.2    2.6
C     4.9    2.7    5.2
H     4.1    3.4    5.6
N     0.2   -5.4    5.5
H    -6.0    2.8   -4.0
P     0.3    0.1   -7.9
H     0.9   -6.1   -5.0
H     5.5    3.5   -4.7
H     1.1   -5.6    5.9
I    -5.5   -5.9   -1.6
I    -2.0    7.9   -1.6
H    -5.2    3.4    5.6
H    -3.9   -1.6   -7.2
I    -7.7    2.1    2.6
H    -0.5   -6.1    5.9
I    -5.8    6.0   -1.7
H     0.8    4.5   -7.2
I    -7.9   -2.1    2.6
H    -3.7   -3.4   -7.0
I     8.3   -2.0   -1.6
H     5.9    3.0    5.6
H     3.3   -2.8   -7.5
I    -2.0   -8.3   -1.6
I     6.0    5.8    2.6
H    -0.7    5.3   -6.9
I     2.4    8.1    2.6
I     2.4   -8.1    2.6
I    -3.0   -5.9   -5.8
P     0.2   -0.0    8.9
I     8.6    2.2   -1.6
I     6.1   -6.1    2.6
H     3.7   -2.1    7.9
I    -3.3    6.0   -5.8
C    -3.9   -2.6   -7.7
P    -9.0   -0.0    0.5
H     5.4   -1.6   -7.2
C     0.0    5.0   -7.7
P    -4.5    8.0    0.5
P    -4.5   -8.1    0.5
I     7.2    0.0   -5.8
H    -3.3   -2.7    8.3
P     4.8    8.0    0.5
H    -0.6    4.4    8.3
P     4.8   -8.1    0.5
H    -3.2   -2.6   -8.5
I    -6.6   -0.1    6.9
H     5.6   -3.4   -7.0
H    -0.5    4.5   -8.5
N     4.0   -2.8   -8.3
P     9.6   -0.0    0.5
H     3.9   -3.8    8.0
H    -8.3    4.7    1.4
I     3.5   -6.0    6.8
C     5.4   -2.6   -7.7
P    -9.0   -0.1   -3.7
I     3.6    6.0    6.8
I    -7.7    2.0   -5.7
N     4.0   -2.9    8.5
H     0.3   -9.7    1.4
P    -4.4   -8.0   -3.7
H     3.8   -2.0   -8.9
H    -5.6   -2.1    7.9
H     1.3    5.9    7.9
H    -8.2    5.6   -0.8
P    -4.4    8.1   -3.7
H    -8.1   -5.1   -2.7
H     8.5    5.0    1.4
H    -6.0   -2.8   -7.5
I    -7.8   -2.2   -5.8
H    -0.5  -10.0   -0.8
P     4.9   -8.0   -3.7
I     2.4   -7.8   -5.9
H    -0.0    9.7   -2.8
P     4.9    8.1   -3.7
P    -9.0   -0.0    4.7
N    -5.3   -2.8   -8.3
H    -8.3   -4.7    3.7
P     9.6   -0.1   -3.7
H     9.2    4.5   -0.8
H     1.0    6.9   -7.5
I    -0.8   -2.1  -10.0
I    -0.9    2.1  -10.0
H     3.2   -2.9    9.3
C    -4.0   -2.7    9.1
H     8.8   -4.7   -2.7
P    -4.5    8.0    4.7
H     3.9   -3.7   -8.8
I     6.0    6.0   -5.8
I     2.8    0.0   -9.9
P    -4.5   -8.1    4.7
C    -0.1    4.9    9.1
H    -5.4   -3.8    8.0
I     6.3   -5.9   -5.8
N     0.6    6.3   -8.3
I   -10.1    2.2   -1.6
H     0.3    9.7    3.7
H    -0.2    6.7    8.0
H    -9.4    4.5   -0.8
I     2.4    8.3   -5.9
P     4.8    8.0    4.7
N    -5.4   -2.9    8.5
P     4.8   -8.1    4.7
N     0.5    6.2    8.5
H     0.7    4.3    9.6
H    -4.0   -1.7    9.6
H     8.6   -5.0    3.7
N    -9.1    5.4   -0.4
H     6.0   -2.7    8.3
H     1.1  -10.5   -0.8
H    -5.5   -2.0   -8.9
C    -9.1    5.4    1.1
I   -10.4   -2.0   -1.6
P     9.6   -0.0    4.7
I    -2.0   -8.0    6.8
I    -5.7    6.0    6.8
I    -5.8   -6.0    6.8
N     0.2  -10.7   -0.4
H     8.8    6.1   -0.8
H     6.1   -2.6   -8.5
I    -2.0    8.1    6.8
C     0.2  -10.8    1.1
I     7.3    7.9   -1.6
I     3.5  -10.1   -1.7
H     1.4    6.0   -8.9
C     5.3   -2.7    9.1
I    -3.2   10.1    2.6
I    -6.9   -8.1    2.6
I    -6.9    8.1    2.6
N     9.5    5.4   -0.4
H    -5.4   -3.7   -8.8
C     9.5    5.4    1.1
H    -8.7   -4.4   -4.9
I     8.4    2.0    6.8
C    -9.1   -5.4   -3.1
I     3.8   10.2   -1.6
I     8.4   -2.2    6.8
H    -3.8   -3.5    9.8
H    -9.0    6.4    1.4
I    -3.3  -10.3    2.6
I     7.3   -8.3   -1.6
H     5.3   -1.7    9.6
H    -0.1    6.8   -8.8
C     0.2   10.7   -3.1
H    -0.8    5.2    9.9
I    -2.2   -0.1   11.0
H    -9.8   -4.7   -2.7
H     0.9   10.0   -5.0
I    10.7   -2.1    2.6
H    -0.8  -11.1    1.4
I     1.4   -2.3   11.0
C    -9.1   -5.4    4.0
H     8.6   -5.5   -5.0
H   -10.1    5.0    1.4
C     9.5   -5.4   -3.1
I     1.5    1.9   11.1
H    10.3    4.7    1.4
H     1.2   11.0   -2.7
I    10.9    2.1    2.6
H    -6.1   -2.9    9.3
N    -9.1   -5.3   -4.6
C     0.2   10.8    4.0
H     0.9    6.8    9.3
H    -8.2   -5.6    5.9
H    -8.4   -6.1   -5.0
H     1.0  -11.4    1.4
H    -9.8    6.1   -0.8
H     9.3   -6.4   -2.8
H    -0.5   10.0    5.9
H    -9.0   -6.4    3.7
C     9.5   -5.4    4.0
H     9.6    6.4    1.4
H    -9.3   -6.4   -2.8
H    -0.1  -11.7   -0.8
N     0.2   10.8   -4.6
I    -5.5   10.2   -1.6
I   -11.4    0.2    2.6
H    -0.0   -4.4  -10.9
H    -0.7   10.6   -5.0
H    -0.5   11.4   -2.7
H     5.5   -3.5    9.8
H    -0.8   11.2    3.7
H     9.2   -4.5    5.9
H   -10.1   -5.0    3.7
I    -5.8  -10.1   -1.7
N     9.6   -5.3   -4.6
H    10.4    5.6   -0.8
I    -6.5    0.0   -9.9
H     9.9   -4.4   -4.9
N    -9.1   -5.4    5.5
H    10.3   -4.7    3.7
H     1.0   -9.2   -7.5
I    -6.9   -7.8   -5.9
H    -9.4   -4.5    5.9
P    -9.0    0.1   -7.9
H    10.5   -5.1   -2.7
H     1.0   11.4    3.7
H    -8.5    4.5   -7.2
P    -4.3   -8.0   -7.9
I     6.1   10.1    2.6
N     0.2   10.7    5.5
H    -3.3    3.1  -11.2
I    -3.3  -10.1   -5.8
I    -3.1   10.2   -5.8
P     0.4    0.1  -12.1
I     3.6   -5.8  -10.0
H     9.6   -6.4    3.7
H     1.1   10.5    5.9
P    -4.3    8.2   -7.9
I     6.0  -10.3    2.6
I    12.1   -0.1   -1.6
H    -4.5    1.8  -11.2
N     9.5   -5.4    5.5
H     8.6    5.3   -6.9
H     8.8   -6.1    5.9
H     1.2   -5.5  -10.9
I    -6.9    8.3   -5.9
P     5.0   -8.0   -7.9
I     3.7    6.1  -10.0
H     4.8    1.8  -11.2
H    -0.2   -9.4    8.0
P     5.0    8.2   -7.9
P     9.6    0.1   -7.9
I   -10.2   -2.2    6.8
I    10.9    2.0   -5.7
I    10.8   -2.2   -5.8
N     0.3   -5.3  -11.3
H   -10.0   -5.5   -5.0
H    -0.4   -6.0  -10.9
I   -10.3    2.0    6.8
H     4.2    3.5  -11.2
C    -4.3    2.8  -11.6
H    -8.0    5.9    7.9
H     0.6   11.7   -4.9
H     0.5   -4.5   11.9
I     3.6  -10.1    6.8
P    -9.1   -0.0    8.9
I     3.5   10.2    6.8
I   -11.4    0.0   -5.8
P    -4.4    8.0    8.9
P    -4.4   -8.1    8.9
H    -5.1    3.5  -11.2
I     7.3   -8.0    6.8
H    -0.1   -9.3   -8.8
H     8.7    4.4    8.3
I    -1.9   -7.9  -10.0
H    -0.7  -10.8   -6.9
H    10.2   -6.1   -5.0
I    -5.7   -5.8  -10.0
N     0.6   -9.9   -8.3
C     5.0    2.8  -11.6
I     7.3    8.1    6.8
I    -3.4    5.9   11.0
H    -9.8   -6.1    5.9
H     1.3  -10.2    7.9
P     4.9    8.0    8.9
I    -3.1   -6.1   11.0
P     4.9   -8.1    8.9
H   -12.7   -2.5   -0.8
I    -5.6    6.1  -10.0
H     8.8    4.5   -8.5
P     9.5   -0.0    8.9
C    -9.3    5.0   -7.7
H     6.0    3.1  -11.2
H    -0.1   11.7    5.9
C     9.3    5.0   -7.7
I    -1.9    8.3  -10.0
H    -0.8   -5.6   11.8
P     0.2   -0.2   13.1
I     6.0  -10.1   -5.8
N     0.5  -10.0    8.5
I     7.1   -0.1   11.0
H    -3.9    1.6   12.4
H    -8.3    6.9   -7.5
H   -12.5    2.8   -3.1
H    -3.9    3.4   12.1
H     0.9   -9.4    9.3
H    10.1    4.5   -7.2
H    10.5   -5.6    5.9
I     8.4    2.1  -10.0
H    -3.6   12.7    1.4
I     6.3   10.2   -5.8
H   -10.0    5.3   -6.9
H     3.9  -12.4   -2.8
H    -9.0   -9.7    1.4
I     8.5   -2.1  -10.0
H     4.6   12.5   -0.8
H    -8.2  -10.5   -0.8
H    -4.7   12.5   -0.8
H     0.8   -6.2   11.8
N     0.2   -5.5   12.2
H     8.8  -10.0   -0.8
H    -7.9    6.0   -8.9
H     3.2    2.7   12.8
H   -12.9   -3.4    1.4
I    -5.7  -10.1    6.8
C     0.0  -11.1   -7.7
H    12.6    2.8   -4.0
I    -5.8   10.2    6.8
H     1.4  -10.1   -8.9
H    -8.6    4.3    9.6
N    -8.7    6.3   -8.3
H    13.2    2.0   -2.6
H   -13.0    1.9    3.4
H    -4.0  -12.5    3.4
H   -13.4   -1.7    1.4
H     5.4    1.6   12.4
H    -9.9    4.4    8.3
H    13.3   -3.0    1.4
H    -9.8    4.5   -8.5
H     5.4    3.4   12.1
I     2.4   -8.0   10.9
H     9.3    9.7   -2.8
N    -8.8    6.2    8.5
I    -7.8    1.9   11.1
I    -7.9   -2.3   11.0
C    -4.0    2.6   12.9
H     3.9   13.1    1.4
H     0.8  -11.7   -7.2
