         400
 sphere cut out from bulk 
P    -0.5   -1.6    0.7
I     2.2   -0.1   -0.4
I    -2.4    0.6   -0.7
H    -1.3    2.6    0.6
I    -0.5    0.3    3.2
H    -0.9   -0.1   -3.3
H     3.5   -0.0    1.7
N    -1.3    3.6    0.9
H     0.8    3.8    0.7
I    -0.4   -3.5   -1.9
H    -1.3    3.6    2.0
H     3.2   -2.1   -2.0
H    -0.2    4.3   -0.7
C    -0.1    4.3    0.4
C    -0.9   -0.1   -4.3
I     1.4   -3.7    2.2
H     2.2   -3.4   -2.0
H    -4.0    0.6    2.2
H    -2.2    4.0    0.6
H     1.2    0.2   -4.6
I    -3.1   -3.1    1.8
H     0.3    1.6   -4.5
H    -0.8   -1.2   -4.7
N     4.3   -0.0    2.4
H     2.9   -0.4    4.0
N     0.3    0.6   -4.9
P     4.0    2.1   -2.0
N     3.2   -3.1   -2.3
I     1.4    3.6   -3.2
H    -4.3   -1.0    2.4
H    -1.8    0.4   -4.7
H     3.2    1.3    3.7
C     3.7    0.3    3.8
N    -4.7   -0.0    2.4
H     4.7   -1.0    2.4
H    -0.2    5.4    0.7
H     0.3   -3.1    4.6
H     5.0    0.6    2.2
H    -3.7   -3.5   -2.1
H     3.1   -3.1   -3.3
H    -5.4   -0.0    1.7
I     4.0    4.0    0.6
P    -4.9    2.1   -2.0
H     4.2   -3.8   -0.6
H    -0.2   -5.7    0.7
H     0.3    0.6   -5.9
I     3.9    0.1   -4.5
C     4.3   -3.9   -1.7
H    -4.7   -3.8   -0.6
I    -3.0    4.2   -3.4
P    -0.6    2.1    5.9
H     0.3   -2.0    5.9
C    -4.7   -3.9   -1.7
H     4.4    0.2    4.5
I    -4.9    4.0    0.6
N     0.3   -3.0    5.6
H    -4.5    0.2    4.5
H    -5.7   -2.1   -2.0
I     2.1    3.7    4.8
I    -2.4    4.2    4.3
C    -5.3    0.3    3.8
H     5.2   -3.5   -2.1
I     6.6    0.6   -0.7
I    -5.0    0.1   -4.5
C    -0.1   -6.8    0.4
H     4.1   -4.9   -2.0
I    -6.8   -0.1   -0.4
H    -0.2   -6.8   -0.7
H    -1.8   -3.3    5.7
I     5.9   -3.1    1.8
H     1.2   -3.5    5.9
H    -5.7    1.3    3.7
N    -5.8   -3.1   -2.3
I     2.1   -3.7   -5.6
P    -0.5   -5.3   -4.6
H    -4.8   -4.9   -2.0
C    -0.9   -3.8    6.1
H    -6.1   -0.4    4.0
H     0.8   -7.2    0.7
I    -2.4   -3.3   -6.2
P    -0.5    5.7   -4.6
H    -5.8   -3.1   -3.3
P     4.0   -5.3    3.3
I     1.4   -0.1    7.3
H    -2.2   -7.1    0.6
H    -0.9   -4.8    5.8
N    -1.3   -7.5    0.9
H     4.1    6.1   -2.0
I    -3.1    0.5    7.0
P     4.0    5.8    3.3
H     2.9    3.2   -6.5
H    -6.7   -3.4   -2.0
I    -0.4    7.6   -1.9
H    -1.3   -7.5    2.0
I     1.4    7.4    2.2
H     6.8    4.0    0.6
I     3.9   -3.5    6.0
P    -5.0   -5.3    3.3
I     5.9    4.2   -3.4
H    -4.8    6.1   -2.0
H     7.6    2.6    0.6
H    -0.9   -3.7    7.2
I     4.0   -7.1    0.6
H     2.2    7.6   -2.0
I    -0.5    3.9   -7.2
I     1.4   -7.5   -3.2
P    -5.0    5.8    3.3
I    -3.0   -6.9   -3.4
I     1.4   -0.0   -8.2
H     4.5    3.9   -5.9
P     4.0   -1.7   -7.2
H    -4.5    3.9   -5.9
H     4.2    7.2   -0.6
I    -2.4   -6.9    4.3
N     7.7    3.6    0.9
C     4.3    7.2   -1.7
H    -0.9    6.3    5.8
C     3.7    3.9   -6.7
I    -5.1   -3.5    6.0
H    -1.3   -8.5    0.6
H     7.2    0.4   -4.7
P     8.5   -1.6    0.7
H    -4.7    7.2   -0.6
I    -4.9   -7.1    0.6
H     7.6    3.6    2.0
I    -7.6   -3.7    2.2
H    -3.7    7.6   -2.1
I    -3.1    7.9    1.8
C    -4.7    7.2   -1.7
H     8.1   -0.1   -3.3
N     3.2    8.0   -2.3
I     6.6    4.2    4.3
P    -5.0   -1.7   -7.2
H     3.1    4.3    7.1
I    -7.5    3.6   -3.2
H     3.3    4.9   -6.8
H    -7.8    0.2   -4.6
I     2.1   -7.4    4.8
H    -8.2    3.8    0.7
I     8.5    0.3    3.2
H     3.1    7.9   -3.3
C     8.1   -0.1   -4.3
I    -3.1    0.5   -8.7
I     5.9    0.5    7.0
I    -6.9    3.7    4.8
H     0.3    8.0    4.6
C    -5.3    3.9   -6.7
H    -1.3   -3.8   -8.5
I    -0.4    3.9    8.6
H     5.2    7.6   -2.1
H    -6.1    3.2   -6.5
I     8.6   -3.5   -1.9
H     8.1   -1.2   -4.7
H    -4.3    2.6   -8.0
P    -0.5    9.4    0.7
P     4.0   -1.5    8.5
I     2.1    7.4   -5.6
C    -0.9    7.3    6.1
I     6.6   -3.3   -6.2
P    -9.5   -1.6    0.7
I    -6.9   -3.7   -5.6
H     2.2    4.0    8.5
H     4.7    2.6   -8.0
H     3.3   -6.1   -6.8
H     4.1    2.5    8.4
H     1.2    7.6    5.9
H     7.1   -3.3    5.7
H     3.2    9.0   -2.0
I     5.9   -6.9   -3.4
N     3.1    4.3    8.2
H    -0.2    0.6    9.8
N     4.3    3.6   -8.0
N     0.3    8.0    5.6
H     8.8    4.3   -0.7
H     6.8   -7.1    0.6
C     8.8    4.3    0.4
H    -1.8    7.8    5.7
H    -8.6    1.6   -4.5
P    -5.0   -1.5    8.5
N    -8.7    0.6   -4.9
N    -4.7    3.6   -8.0
H    -0.1   -2.1   -9.8
H    -3.8    3.9    8.4
I    -9.5    0.3    3.2
P    -0.5    2.0   -9.8
P     4.0   -9.0   -2.0
I     5.9    7.9    1.8
H    -4.8    2.5    8.4
C    -9.1    4.3    0.4
H    -3.9    4.3   -8.3
H    -9.1    4.3   -0.7
H    -5.7    4.9   -6.8
N    -5.8    8.0   -2.3
H     3.6    3.6   -8.8
I    -9.4   -3.5   -1.9
H    -5.9    4.3    7.1
I    -0.5   -7.2   -7.2
I    -2.4    7.8   -6.2
H    -8.7   -3.1    4.6
H     8.8    5.4    0.7
H    -0.9    7.3    7.2
H     3.1   -6.8    7.1
C     4.2    3.5    8.8
H     4.5   -7.2   -5.9
H    -9.8   -0.1   -3.3
N    -1.3   -3.8   -9.5
H    -4.5   -7.2   -5.9
H    -6.7    7.6   -2.0
I     3.9    7.5    6.0
H    -7.8   -3.5    5.9
H    -5.8    7.9   -3.3
H     0.8   -3.6   -9.7
P    -4.9   -9.0   -2.0
I     6.6   -6.9    4.3
C     3.7   -7.1   -6.7
P     8.4    2.1    5.9
H     9.3    1.6   -4.5
H    -8.6    0.6   -5.9
I     5.9    0.5   -8.7
N     9.3    0.6   -4.9
I    -7.6   -0.1    7.3
H     3.2    5.3    8.5
H     9.8    3.8    0.7
H     0.3   -9.5   -4.5
H     8.8   -5.7    0.7
I    -2.4   -3.1    9.8
C    -4.7    3.5    8.8
C    -0.1   -3.1  -10.1
H     5.0    4.3   -8.3
H     5.2    3.9    8.4
H     2.9   -7.9   -6.5
H    -9.1    5.4    0.7
H   -10.3    2.6    0.6
H    -2.2   -3.4   -9.9
H    -8.7   -2.0    5.9
H     3.2   -5.7    8.5
P    -0.6   -9.0    5.9
H    -5.7   -6.1   -6.8
N     7.7   -7.5    0.9
C    -9.9   -0.1   -4.3
H     9.3   -3.1    4.6
N    -8.7   -3.0    5.6
C     8.0   -3.8    6.1
H     0.3    9.0    5.9
H    -9.1   -5.7    0.7
I    -2.4  -10.5   -0.7
I    -7.6    7.4    2.2
H    -5.7    9.0   -2.0
H     7.6   -7.5    2.0
C    -0.2    0.7   10.8
I    -5.1    7.5    6.0
I     2.1   -3.7   10.0
N   -10.3    3.6    0.9
H    -9.8   -1.2   -4.7
H    -5.4    3.6   -8.8
H    -8.2   -7.2    0.7
N    -5.8    4.3    8.2
H     3.2   -9.8    3.7
P     8.4   -5.3   -4.6
H    -0.8    9.9   -4.7
H     9.3    0.6   -5.9
H     8.1   -4.8    5.8
H    -1.3   -4.8   -9.9
N     3.1   -6.7    8.2
H   -10.3    3.6    2.0
I    -7.5   -7.5   -3.2
C    -5.3   -7.1   -6.7
I    11.1   -0.1   -0.4
C     8.8   -6.8    0.4
H    10.2    0.2   -4.6
I    -7.5   -0.0   -8.2
H     8.8   -6.8   -0.7
I    -0.4   -7.1    8.6
H     9.3   -2.0    5.9
P     8.4    5.7   -4.6
I    -6.9   -7.4    4.8
I     2.2   11.0   -0.4
I     4.1   -3.5   -9.9
H    -1.3   -1.1   11.1
H    -4.3   10.1    2.4
N     9.2   -3.0    5.6
I    10.4   -3.7    2.2
H     0.8    0.2   11.2
H    -1.3    7.3   -8.5
H     2.2   -7.1    8.5
H     4.2    3.6    9.8
I    -0.5  -10.8    3.2
H    -2.2    0.4   11.1
H    -0.2    1.7   11.2
C    -9.1   -6.8    0.4
H     4.7   10.1    2.4
P    -9.5    2.1    5.9
I     2.2  -11.2   -0.4
H    -3.9  -10.5    2.2
I   -11.4    0.6   -0.7
H    -3.9   -6.8   -8.3
H    -9.1   -6.8   -0.7
H     7.7   -8.5    0.6
I    10.4    3.6   -3.2
H     8.1   -3.7    7.2
H    -5.9   -6.8    7.1
N    -1.3   -0.1   11.4
H    -0.9   11.0   -3.3
H    -4.8    3.6    9.8
I    -6.9    7.4   -5.6
I    -4.9   -3.5   -9.9
N     0.3  -10.5   -4.9
H    -5.8    5.3    8.5
H    -6.8    4.0    8.5
I     8.6    7.6   -1.9
H    -0.1   -3.2  -11.2
H    -3.8   -7.2    8.4
H    -0.9  -11.2   -3.3
I     2.2    3.6  -10.9
H     2.9   10.6    4.0
H    -1.3    6.2   -9.9
H     3.5   11.1    1.7
H   -10.8    0.4   -4.7
H     3.6  -11.1    1.7
H    -5.8   -5.7    8.5
H     8.1    6.3    5.8
N     4.3   -7.5   -8.0
I     4.0    0.3   11.1
I    -0.5   11.3    3.2
H     5.0  -10.5    2.2
I     8.5    3.9   -7.2
P    -9.5   -5.3   -4.6
C    -0.9   11.0   -4.3
H    -1.8  -10.7   -4.7
H     5.0   -6.8   -8.3
H     1.2  -10.9   -4.6
H    -6.1   -7.9   -6.5
H   -11.2    4.0    0.6
H    11.2   -3.4   -2.0
H     4.3   -0.2  -11.1
I    -2.4   11.6   -0.7
N    -4.7   -7.5   -8.0
H    -5.7   -9.8    3.7
I     6.6    7.8   -6.2
C     3.7  -10.8    3.8
P    -9.5    5.7   -4.6
H     0.3  -10.5   -5.9
C    -0.9  -11.2   -4.3
H     7.1    7.8    5.7
N    -1.3    7.2   -9.5
H    -4.7   -0.2  -11.1
H     3.6   -7.4   -8.8
H     7.7   -3.8   -8.5
N     4.3   11.0    2.4
N    -5.8   -6.7    8.2
I    -5.0    0.3   11.1
N     4.3  -11.1    2.4
I     6.5   -3.1    9.8
H     9.8   -7.2    0.7
I    -2.4    4.2  -11.2
H     5.2   -7.2    8.4
I    -9.4    7.6   -1.9
H     1.2   11.3   -4.6
C    -9.9   -3.8    6.1
H    10.1   -3.5    5.9
N    -4.7   11.0    2.4
H     0.8    7.5   -9.7
N    -4.7  -11.1    2.4
C     4.3   -7.6    8.8
P    -0.5   -5.3   11.1
H    -9.8   -4.8    5.8
I    -0.4    0.2  -12.4
H    -7.8    7.6    5.9
H    -4.3   -8.4   -8.0
I     6.6  -10.5   -0.7
H    -5.4   11.1    1.7
H    -5.4  -11.1    1.7
H     6.8   -3.4   -9.9
C     8.0    7.3    6.1
I     3.9  -11.0   -4.5
C    -4.7   -7.6    8.8
H    11.8   -0.4    4.0
P     4.0    9.4   -7.2
I    -9.4    3.9   -7.2
C     3.6   11.4    3.8
H    -1.8   11.4   -4.7
H    -1.4   -0.0   12.4
H     2.9  -11.5    4.0
H    12.2   -2.1   -2.0
H    -4.0   11.7    2.2
H     4.7   -8.4   -8.0
H     4.4  -10.8    4.5
P    -0.5    5.8   11.1
H    -4.5  -10.8    4.5
I     2.1    7.3   10.0
I   -12.1   -3.1    1.8
C    -5.3  -10.8    3.8
I    11.0    3.7    4.8
H    12.5   -0.0    1.7
H     2.3    0.2  -12.4
H   -10.8   -3.3    5.7
H    -8.7    8.0    4.6
N     0.3   11.7   -4.9
H    -2.2    7.7   -9.9
I     3.9   11.2   -4.5
