         400
 sphere cut out from bulk 
H     0.4   -1.1    0.3
C     1.0    0.7   -0.5
N     1.1   -0.7   -0.4
H     0.1    1.0   -0.9
H     1.2    1.1    0.5
H     0.8   -1.2   -1.3
H     2.0   -1.1   -0.1
H     1.8    1.1   -1.2
I    -1.1   -2.2    1.9
I    -2.8    1.5   -0.4
H    -2.8   -1.0   -2.3
I     0.2   -2.4   -3.4
P    -3.5   -0.1    2.3
I     2.8    1.4    2.9
H     0.4   -1.5    4.1
I     4.1   -2.4    0.3
C    -3.4   -1.4   -3.1
I    -1.7    1.7    4.2
I     3.1    1.5   -3.8
H    -2.6   -3.3   -3.1
H    -3.0   -1.1   -4.1
N     1.0   -1.9    4.9
I    -1.5    1.6   -4.9
H     2.0   -1.5    4.8
H    -4.4   -1.0   -3.0
N    -3.5   -2.9   -3.0
H    -3.9   -3.1   -2.1
H     1.5   -3.6    3.8
I    -5.0   -2.4    0.3
P    -3.5    3.2   -2.9
H     4.7   -1.0   -3.0
H    -2.6    4.5    2.3
P     1.0    3.1    4.8
P     1.1   -0.2   -5.7
C     1.1   -3.4    4.8
P     5.5   -0.1    2.3
I     0.2    5.4    2.6
H     0.6   -1.6    5.8
P    -3.5   -4.6    2.1
H     0.1   -3.8    4.9
H    -3.9    4.7    1.3
I    -1.1    5.6   -2.7
H     5.2   -3.1   -2.1
H     1.5    4.2   -4.6
N    -3.5    4.9    2.2
H    -4.1   -3.2   -3.8
I     6.3    1.5   -0.4
C     5.7   -1.4   -3.1
H     0.8    6.6    0.5
I    -4.4   -2.4    4.5
H     0.1   -6.7    0.1
H     0.4    6.7   -1.1
H     6.3   -1.0   -2.3
H    -4.1    4.6    3.0
I    -2.8   -6.2   -0.4
H     1.2   -6.6   -1.3
I     4.1    5.4   -1.1
I     4.7   -2.4    4.5
H     1.8   -3.7    5.6
H     0.1    4.0   -5.7
N     5.6   -2.9   -3.0
H     1.8   -6.7    0.4
H     2.0    6.7   -0.7
H     5.0   -3.2   -3.8
I    -6.3    1.4    2.9
H     5.2    4.7    1.3
P     5.6    3.2   -2.9
C     1.0   -7.0   -0.3
N     1.1    7.0   -0.4
H    -7.1   -1.1   -0.1
C     1.1    4.4   -5.6
I    -6.0    1.5   -3.8
P     1.0   -4.7   -5.6
I     3.5   -2.6   -6.0
H     5.0    4.6    3.0
H     6.1   -1.1   -4.1
H    -7.2    1.1   -1.2
I    -5.0    5.4   -1.1
H    -2.8    6.8    1.5
P     5.6   -4.6    2.1
I    -1.5   -6.2    4.1
H    -3.4    1.9    6.5
C    -3.4    6.4    2.3
I     3.1   -6.3    3.0
I     1.7    1.5    7.4
H     1.8    4.1   -6.4
N     5.6    4.9    2.2
H     6.5   -3.3   -3.1
I     2.8   -6.4   -3.7
I    -0.5   -2.4   -7.6
H     0.4    6.2   -4.9
H    -3.0    6.7    3.3
H    -7.9    1.1    0.5
N    -8.0   -0.7   -0.4
I    -1.7   -6.1   -5.0
C    -8.0    0.7   -0.5
I     3.5    5.2    5.2
H    -2.7    2.0   -7.5
N     1.0    5.9   -5.7
H     6.5    4.5    2.3
H    -3.7   -3.6    6.5
H    -4.4    6.8    2.2
H    -8.2   -1.2   -1.3
I    -0.5   -2.4    8.1
I     8.0   -2.2    1.9
H     4.7    6.8    2.2
I    -5.6   -2.6   -6.0
C     1.0    8.5   -0.3
I     1.7    1.5   -8.3
N     1.1   -8.5   -0.4
I     7.3    1.7    4.2
C    -3.5    2.3    7.6
H     2.0    6.3   -5.6
I    -0.5    5.4    6.8
H    -7.1   -1.5    4.8
H    -2.5    4.1    7.2
I    -4.4    5.4   -5.3
H    -8.7   -1.1    0.3
H     0.1    8.8    0.1
C     5.7    6.4    2.3
H    -2.7    2.0    8.2
I     6.3   -6.2   -0.4
H    -2.5   -3.6    7.7
H     5.7    1.9    6.5
I     4.7    5.4   -5.3
H    -4.2    4.2    6.8
H     0.4   -8.9   -1.1
H     0.6    6.2   -6.6
P    -3.5    7.7   -3.1
H     0.8   -9.0    0.5
H     1.8    8.9    0.4
N    -3.5    3.8    7.5
H     1.2    8.9   -1.3
P     1.1    7.6    4.9
N    -3.5   -4.0    7.4
H    -9.0    1.0   -0.9
H    -2.5   -3.6   -8.0
H     2.0   -8.9   -0.7
H    -4.5    2.0   -7.7
C    -3.5    2.3   -8.1
P    -3.5   -7.9   -3.1
H     5.4   -3.6    6.5
I     7.6    1.6   -4.9
H    -7.5   -3.6    3.8
H    -3.7    4.2   -7.3
H     4.6    2.0   -7.7
I    -6.0   -6.3    3.0
I    -5.6    5.2    5.2
H     9.2    1.0   -0.9
H    -2.7   -5.8    6.7
H    -4.5    2.0    8.0
H    -2.8   -8.8    1.5
H     4.9    4.2    6.8
H     6.3    6.8    1.5
H    -4.2   -3.6   -7.6
H     4.6    2.0    8.0
P     1.1   -8.0    4.9
H     9.5   -1.1    0.3
N    -8.0   -1.9    4.9
H     6.1    6.7    3.3
C     5.6    2.3    7.6
H    -8.6   -1.5    4.1
N    -3.5    3.8   -8.2
I    -6.3   -6.4   -3.7
H     4.9   -3.6   -7.6
H    -7.1    6.7   -0.7
I    -2.8    9.3   -0.4
H    -7.5    4.2   -4.6
H    -2.5    4.1   -8.5
H    -4.2   -3.6    8.1
I    -8.9   -2.4   -3.4
C    -3.5   -5.5    7.3
P    -8.0   -0.2   -5.7
N    -3.5   -4.0   -8.3
C    -8.0   -3.4    4.8
H    -7.2   -6.7    0.4
P    -8.1    3.1    4.8
H    -7.3   -3.7    5.6
H    -3.4    1.9   -9.1
I     1.7   -6.3    7.5
H    -3.0   -8.9    3.3
P     5.5    7.7   -3.1
H    -3.4   -5.9   -7.3
H     5.4    4.2   -7.3
H     6.4    2.0   -7.5
C    -3.4   -9.2    2.3
P     1.1   -0.2   10.0
H    -4.4   -8.8    2.2
H     0.6   -1.6   -9.9
H    -4.5   -5.8    6.9
H     9.9   -1.2   -1.3
N     5.6    3.8    7.5
H    -3.7    4.2    8.4
P     5.5   -7.9   -3.1
I     8.0    5.6   -2.7
C     5.6    2.3   -8.1
N     5.6   -4.0    7.4
I     9.3   -2.4   -3.4
H     4.6   -5.8    6.9
H     4.7   -8.8    2.2
C    10.1    0.7   -0.5
H     4.9   -3.6    8.1
I     3.1    9.2    3.0
N    10.2   -0.7   -0.4
I     2.8    9.1   -3.7
I    -1.5    9.4    4.1
H     1.8    4.1    9.3
H    10.3    1.1    0.5
H    -8.5   -1.6    5.8
I    -1.1  -10.0   -2.7
H    -7.9   -6.6   -1.3
I    -0.5    5.4   -8.9
I     0.2  -10.1    2.6
H     9.5   -1.5    4.1
I     1.7   -6.3   -8.2
H    -7.3    4.1   -6.4
H    -3.7   -3.6   -9.2
H     0.4   -9.3   -4.9
I    -7.3    1.5    7.4
I   -10.2   -2.2    1.9
H    -8.2    6.6    0.5
H     6.6    4.1    7.2
H     6.4    2.0    8.2
C    -3.5   -5.5   -8.4
I     7.6   -6.2    4.1
I     3.5   -2.6    9.7
N     5.6    3.8   -8.2
N    -8.0    7.0   -0.4
C    -8.0    4.4   -5.6
H    -4.2    4.2   -8.9
C    -8.0   -7.0   -0.3
C     5.6   -5.5    7.3
H     6.6   -3.6    7.7
I    -8.9    5.4    2.6
H    -3.4   -5.9    8.3
I     7.3   -6.1   -5.0
N     5.6   -4.0   -8.3
H     0.1    4.0   10.0
H     5.4    4.2    8.4
I    -1.7    9.5   -5.0
P    -8.1   -4.7   -5.6
H    -9.0   -3.8    4.9
H     6.3   -8.8    1.5
H     6.4   -5.8    6.7
H     1.8   -3.7  -10.1
H     5.7    1.9   -9.1
H     6.6   -3.6   -8.0
H     2.0   -9.3   -5.6
H     4.9    4.2   -8.9
I     4.1  -10.2   -1.1
H    -7.1    6.3   -5.6
H    -8.7    6.7   -1.1
C     5.7   -9.2    2.3
H     5.7   -5.9   -7.3
H     0.6    6.2    9.1
I     9.3    5.4    2.6
H    10.9    1.1   -1.2
N     1.0   -1.9  -10.8
I    -1.5    1.6   10.8
H    -2.7   -5.8   -9.0
H     9.2   -3.8    4.9
C     1.1    4.4   10.1
H    11.1   -1.1   -0.1
I    -7.3    1.5   -8.3
H     2.0   -1.5  -10.9
P     1.0   -4.7   10.1
H     5.4   -3.6   -9.2
N     1.0   -9.7   -5.7
H    -9.0   -6.7    0.1
I     6.3    9.3   -0.4
H     6.1   -8.9    3.3
H    -9.0    4.0   -5.7
I    -5.0  -10.2   -1.1
H     9.2   -6.7    0.1
N    10.1   -1.9    4.9
H    -7.1   -8.9   -0.7
H     9.7   -1.6    5.8
P     1.0    3.1  -10.9
H    -4.5   -5.8   -8.8
I    -6.0    9.2    3.0
N    -3.5  -10.7    2.2
H    -7.2    8.9    0.4
C     5.6   -5.5   -8.4
H     0.1   -3.8  -10.8
N    -8.0    5.9   -5.7
H     4.6   -5.8   -8.8
C     1.1   -3.4  -10.9
H     0.6   -9.4   -6.6
H     6.6    4.1   -8.5
H     9.2    4.0   -5.7
I    -5.6   -2.6    9.7
H    -2.6  -11.0    2.3
P    10.1    3.1    4.8
H     9.5    6.7   -1.1
P    10.2   -0.2   -5.7
H    -3.9  -10.9    1.3
I    -6.3    9.1   -3.7
N     1.0    5.9   10.0
N    -8.0   -8.5   -0.4
H     5.7   -5.9    8.3
I     8.6   -2.4   -7.6
I   -10.8    1.7    4.2
H    -8.6    6.2   -4.9
H     0.4   -1.5  -11.6
I   -10.6    1.6   -4.9
C    -8.0    8.5   -0.3
P    -3.5   11.0    2.1
C    10.2   -3.4    4.8
I    -1.7    1.7  -11.5
H    10.6   -3.6    3.8
I   -10.2    5.6   -2.7
H     9.9    6.6    0.5
H     1.5    4.2   11.1
I   -11.9    1.5   -0.4
H    -7.9    8.9   -1.3
I     1.7    9.3    7.5
H    -3.0   -1.1   11.6
I     3.5  -10.3    5.2
P    -8.0    7.6    4.9
H     2.0    6.3   10.1
I     8.6   -2.4    8.1
H    -4.1  -11.0    3.0
H    -2.7    9.7    6.7
H   -11.9   -1.0   -2.3
H     5.2  -10.9    1.3
H    11.1   -1.5    4.8
H    -8.2   -9.0    0.5
I    -0.5  -10.2    6.8
I     8.6    5.4    6.8
N     5.6  -10.7    2.2
I    -7.3   -6.3    7.5
I     3.5    5.2  -10.5
I    -4.4  -10.2   -5.3
P     1.0   10.9   -5.6
I    -4.4   -2.4  -11.2
H    10.3   -6.6   -1.3
H    10.6    4.2   -4.6
I    11.9    1.4    2.9
P    -8.0   -8.0    4.9
C    10.1   -7.0   -0.3
H    -8.5    6.2   -6.6
N    10.2    7.0   -0.4
I     3.1    1.5   11.9
H     9.5    6.2   -4.9
I    -9.5   -2.4   -7.6
I     4.7  -10.2   -5.3
H     1.5  -11.4   -4.6
I     4.7   -2.4  -11.2
H     5.0  -11.0    3.0
C    10.2    4.4   -5.6
P    10.1   -4.7   -5.6
I    -1.7   -6.1   10.7
H   -11.6   -3.3   -3.1
H     6.4   -5.8   -9.0
H    -8.7   -8.9   -1.1
H     0.4    6.2   10.8
I     1.7    9.3   -8.2
C     1.1  -11.2   -5.6
I    -4.4    5.4   10.4
H    -7.3    4.1    9.3
H     1.5   -3.6  -11.9
I     0.2   -2.4   12.3
P     5.6   11.0    2.1
H    -3.4    9.7   -7.3
H    -9.0    8.8    0.1
H     1.5   11.9    3.8
I     4.7    5.4   10.4
I    -7.3   -6.3   -8.2
H   -11.6    4.5    2.3
H     9.2    8.8    0.1
I     7.6    9.4    4.1
H    10.8   -3.7    5.6
H     0.1   11.8    4.9
I    -9.5   -2.4    8.1
H    -4.5    9.8    6.9
H   -12.1   -1.1   -4.1
P    -8.0   -0.2   10.0
I    12.1    1.5   -3.8
P   -12.6   -0.1    2.3
H    10.9   -6.7    0.4
H     4.6    9.8    6.9
I    -5.6  -10.3    5.2
I    -9.5    5.4    6.8
H     0.1  -11.6   -5.7
I   -10.6   -6.2    4.1
H    -7.1   -9.3   -5.6
H    -2.6   12.3   -3.1
C    -3.5   10.1    7.3
C   -12.5   -1.4   -3.1
H    11.1    6.7   -0.7
I     7.3    9.5   -5.0
N    10.1    5.9   -5.7
H    -4.1   -3.2   11.9
I    -5.6    5.2  -10.5
H     6.5  -11.0    2.3
H    -7.3   -3.7  -10.1
H     9.5   -8.9   -1.1
I     8.0  -10.0   -2.7
H    -7.1   -1.5  -10.9
H     0.6   -9.4    9.1
