         400
 sphere cut out from bulk 
I     0.3    1.4   -0.8
H    -1.7    0.2    1.7
H    -0.2    0.0    2.6
C    -1.1    0.7    2.5
H    -0.8    1.7    2.2
P    -1.5   -0.9   -2.4
I    -2.1   -2.5    0.2
H     2.3   -2.8   -0.3
H     1.7    3.8    0.2
N    -1.9    0.6    3.7
I     1.2   -2.4   -3.2
H     3.0   -2.8    1.3
C     3.1   -3.1    0.3
I    -3.9    1.4   -1.9
H     2.4   -0.3   -3.8
H    -2.2   -0.3    4.0
I     1.1   -2.5    3.6
P    -1.5    3.5   -2.4
H     1.8    1.2   -4.2
H    -2.8    1.2    3.6
H    -1.3    1.0    4.5
H     3.9    2.8   -0.3
H     3.3    1.0   -3.4
H     3.7    2.9    1.3
H     4.1   -2.8   -0.1
N     2.6    0.7   -4.1
I    -0.8    1.4   -4.8
C     2.6    4.4    0.3
N     3.8    3.5    0.5
I     3.8    1.4    3.2
P    -1.4   -4.2    2.8
H     2.3   -5.0    0.6
I    -2.2    5.1    0.2
N     3.2   -4.6    0.2
H     2.7    4.9   -0.7
H    -5.1   -2.8   -0.1
I     5.3    1.4   -1.9
H     2.5    5.1    1.1
H    -5.3    2.8   -0.3
H     3.3   -5.0   -0.7
H    -4.5    4.0    0.5
I    -3.5   -2.5   -4.3
H     4.7    4.0    0.5
I     0.7    1.4    6.1
I     1.0    5.3   -3.2
I    -3.4   -2.5    4.7
H    -5.5    2.9    1.3
I    -5.3    1.4    3.2
P     3.0   -1.0    5.6
C     3.3    0.7   -5.4
H     3.9   -5.0    0.9
N    -5.4    3.5    0.5
I     0.3   -6.4    1.1
I     1.1    5.2    3.7
H     2.7    0.3   -6.2
C    -6.0   -3.1    0.3
H    -2.3   -6.0   -2.1
H    -0.1   -6.7   -1.4
H     4.2    0.1   -5.4
H    -5.9    1.0   -3.4
H    -6.1   -2.8    1.3
H     3.6    1.7   -5.7
H    -0.1   -6.5   -3.1
P     3.0    3.5    5.6
H    -4.9    0.1   -5.4
P     3.1   -4.1   -5.1
H    -5.2   -5.0    0.9
H    -6.8   -2.8   -0.3
N    -0.5   -7.0   -2.3
H    -1.3    2.7   -6.8
H     6.4    1.2    3.6
H    -1.7   -2.8   -6.7
I     7.1   -2.5    0.2
I     5.6   -2.5   -4.3
P    -1.5    6.8    2.9
N    -6.0   -4.6    0.2
I    -3.5    5.2   -4.3
H     7.4    0.2    1.7
C    -2.0   -7.0   -2.3
H    -5.8   -5.0   -0.7
N    -6.5    0.7   -4.1
I    -3.7   -6.4    2.2
H    -6.8   -0.3   -3.8
I     3.6   -6.3   -2.8
I     5.8   -2.5    4.7
H    -0.2    7.5   -2.5
C    -6.6    4.4    0.3
I    -3.5    5.2    4.8
C    -5.8    0.7   -5.4
P     7.6   -0.9   -2.4
H     7.0   -0.3    4.0
H    -0.8    2.7    7.6
H    -5.5    1.7   -5.7
H    -2.3   -7.7   -1.5
H    -6.4    4.9   -0.7
N     7.3    0.6    3.7
I    -0.8   -6.3    5.2
H    -2.3    7.8   -1.5
P    -6.1   -1.0    5.6
H    -0.1   -8.0   -2.5
H     3.3   -6.0    4.7
H    -7.5    3.8    0.2
H    -0.6   -2.9    7.9
H    -6.6    5.1    1.1
H    -2.3   -7.4   -3.2
C     8.0    0.7    2.5
H    -2.4   -2.8    7.6
N    -1.5    3.1   -7.7
C    -1.5   -3.1   -7.7
I     0.6   -6.3   -5.7
I     2.5   -2.5   -7.8
H    -6.9   -5.0    0.6
H    -7.4    1.2   -4.2
H    -0.6   -2.8   -8.1
I    -4.4    1.4    7.3
I     6.9    5.1    0.2
I     5.4   -6.4    2.2
H    -2.4    2.6    7.9
P     7.6    3.5   -2.4
H     8.3    1.7    2.2
I     4.7    1.4    7.3
H    -0.9   -5.1   -7.1
N    -0.5    8.4   -2.3
H    -2.4    2.7   -8.0
I     5.7    5.2   -4.3
I    -5.5   -6.3   -2.8
H    -0.7    2.7   -8.4
H    -0.6    5.0   -7.3
N    -1.5    3.1    8.2
H    -0.1    8.8   -1.4
H    -2.4    4.9   -7.1
H    -1.8    4.9    7.2
I     2.4   -2.6    8.2
I    -8.0   -2.4   -3.2
P    -6.1   -4.1   -5.1
H    -1.4   -5.1    7.2
H    -6.5    0.3   -6.2
C    -1.6   -3.2    8.2
C    -2.0    8.4   -2.3
P    -6.1    3.5    5.6
H    -2.4    8.1   -3.2
P     3.1    6.8   -5.1
I    -8.9    1.4   -0.8
I     5.6    5.2    4.8
C    -1.5    4.6   -7.7
H     7.9    1.0    4.5
H    -2.3   -2.8   -8.4
I     0.2    9.1    1.1
I    -8.0   -2.5    3.6
N    -1.6   -4.6   -7.8
P     7.7   -4.2    2.8
H     2.7   -7.7    4.3
H     1.5   -6.7    6.2
P    -1.5   -8.7    2.9
H     2.7    7.8    4.3
C     3.3   -7.1    5.1
H     8.9    0.0    2.6
H     6.8   -6.0   -2.1
H    -2.5   -5.0   -7.5
I     9.4    1.4   -0.8
H    -0.2    9.0   -3.1
C    -1.6    4.5    8.2
N    -1.6   -4.7    8.2
H    -1.3    2.6    9.2
H    -5.8   -6.0    4.7
H    -9.3    0.0    2.6
I     2.4    5.3   -7.8
I     8.4    1.4   -4.8
I    -4.4    1.4   -8.7
N     2.5   -7.1    6.3
H    -1.8   -2.9    9.3
H    -0.7    4.9    8.6
I     2.3    5.3    8.1
H    -2.4    9.5   -2.1
I     0.7    1.4   -9.9
I     4.8    1.4   -8.7
H     4.3   -7.5    5.3
I    -3.8    9.1    2.2
H     3.0   -6.6    7.1
H     2.6    0.2    9.8
H    -1.4   -5.0   -8.7
H    -1.7    5.0   -8.7
I     3.6    9.1   -2.8
H    -2.6   -5.1    8.5
H     2.3    7.4    6.7
I    -8.1    5.3   -3.2
H    -0.9   -5.1    8.8
C     7.2   -7.0   -2.3
C     3.2    8.4    5.1
I    -8.1    5.2    3.7
H   -10.0    1.7    2.2
H    -4.9   -7.5    5.3
H     6.8   -7.7   -1.5
I    -4.5   -6.3   -6.9
H     7.4   -2.8   -6.7
H    -2.4    4.8    8.9
P    -6.1    6.8   -5.1
H     4.2    8.0    5.3
H     6.8    7.8   -1.5
I     4.7   -6.3   -6.9
C    -5.9   -7.1    5.1
I    -8.5    1.4    6.1
P     3.1   -8.7   -5.1
H     6.7   -2.8    7.6
I    -6.7   -2.5   -7.8
I    -2.1  -10.3    0.2
I    -0.8    9.1    5.2
C   -10.2    0.7    2.5
H     6.8   -7.4   -3.2
P     7.6    6.8    2.9
I     1.1  -10.1   -3.2
H     2.2   10.4    0.6
H     6.7    2.6    7.9
H     7.9    2.7   -6.8
H     2.6  -10.4    1.1
H     2.4   -8.1    6.7
N     2.4    8.4    6.3
H    -4.9    8.0    5.3
H     1.5    8.7    6.2
I     5.4    9.1    2.2
I     0.6    9.2   -5.7
H     6.8    2.7   -8.0
H    -6.4   -7.7    4.3
P     3.1   -0.9  -10.4
H     2.8  -10.5   -0.7
I    -6.8   -2.6    8.2
H     6.8    4.9   -7.1
I     1.1  -10.2    3.7
P   -10.7   -0.9   -2.4
I    -8.9   -6.4    1.1
H    -6.5    7.8    4.3
H     3.3   10.5   -0.7
H     3.5    1.7   10.3
H     6.8    8.1   -3.2
H   -10.9    0.2    1.7
H     3.3    9.4    4.7
C     3.3    0.6   10.5
I    -5.6    9.1   -2.8
I    10.3   -2.4   -3.2
I    -9.9    1.4   -4.8
H     6.8   -2.8   -8.4
I    10.3   -2.5    3.6
H     3.9   10.5    0.9
H     6.6   -5.0   -7.5
I    -0.8    1.4   11.2
C     7.6   -3.1   -7.7
C     7.1    8.4   -2.3
N     3.1   10.9    0.2
N     7.7    3.1   -7.7
H     9.0   -6.7   -1.4
C     2.6  -11.1    0.3
N     8.7   -7.0   -2.3
H     4.2    0.0   10.6
H   -10.4    1.0    4.5
P     3.1    3.6  -10.4
H     7.4    4.9    7.2
I     9.4   -6.4    1.1
H     3.0   -6.5   -8.9
C    -5.9    8.4    5.1
H    -6.2   -6.6    7.1
H    10.8    3.8    0.2
H    -9.2   -6.7   -1.4
P   -10.7    3.5   -2.4
I   -11.2   -2.5    0.2
H     9.0   -6.5   -3.1
H    -1.2    1.0  -11.4
H     8.3    2.7    7.6
N     7.6    3.1    8.2
I    -3.4  -10.2   -4.3
I     9.8    1.4    6.1
C     7.5   -3.2    8.2
I    -6.7    5.3   -7.8
N    -6.7   -7.1    6.3
N   -11.0    0.6    3.7
P    -6.0   -8.7   -5.1
H    -5.0    0.0   10.6
P    -1.5   11.3    2.8
H    -9.3   -6.5   -3.1
H     7.7   -5.1    7.2
H     2.9    8.9    7.1
I     8.4   -6.3    5.2
H    10.9    1.2   -4.2
P   -10.6   -4.2    2.8
H    -5.3   10.5    0.9
H    -6.5    0.2    9.8
C     7.6    4.6   -7.7
H    11.4   -2.8   -0.3
N     7.6   -4.6   -7.8
H     1.7  -11.7    0.2
H    -5.6    1.7   10.3
H     6.8    9.5   -2.1
I    -3.5  -10.2    4.8
I    -6.8    5.3    8.1
H     6.6   -5.1    8.5
I    10.1    5.3   -3.2
H    -7.6   -6.7    6.2
P     7.6   -8.7    2.9
H     8.5   -2.9    7.9
I    -3.3   -2.4  -11.2
H     9.0    7.5   -2.5
H     1.6   -6.7   -9.8
H     1.7    1.2   11.8
H   -11.3   -0.3    4.0
I    -8.5   -6.3   -5.7
I    -4.6   -6.4    9.1
P     3.0   -4.2   10.8
I     4.6   -6.4    9.1
H    -5.9   10.5   -0.7
H     8.3   -5.1   -7.1
N     7.5   -4.7    8.2
H    -5.9    9.4    4.7
C     7.5    4.5    8.2
P    -6.0   -0.9  -10.4
H    -6.8    7.4    6.7
I    10.2    5.2    3.7
C    -5.9    0.6   10.5
I     0.6   -6.3   10.3
H     8.6   -2.8   -8.1
H     2.4    7.4   -9.3
N     2.6    0.6   11.8
N    -9.6   -7.0   -2.3
H    11.5   -0.3   -3.8
H     6.7    4.8    8.9
H    -2.1   -0.3  -12.0
H     8.4    2.7   -8.4
H     7.4   -2.9    9.3
H    -9.3    7.5   -2.5
N     2.5   -7.1   -9.6
P    -1.5  -11.9   -2.4
H    -4.4  -11.4    0.5
N     8.6    8.4   -2.3
I    -4.5    9.1   -6.9
H     9.0   -8.0   -2.5
H     8.6    5.0   -7.3
H     7.8    2.6    9.2
H    -6.5  -10.4    1.1
I     4.6    9.1   -6.9
H    -6.4  -10.5   -0.7
H     2.3   -0.3   12.1
H     4.7  -11.4    0.5
N    -1.8    0.7  -12.2
N    -6.0   10.9    0.2
I    -3.6   -2.5   11.6
N    -6.7    8.4    6.3
I   -11.3    5.1    0.2
I    -0.7   -6.3  -10.7
H    -9.3   -8.0   -2.5
I     5.7  -10.2   -4.3
H    -6.8   -8.1    6.7
I     7.0  -10.3    0.2
H    11.4   -5.0    0.6
H     7.4    5.0   -8.7
N    11.8    0.7   -4.1
H   -11.9    1.2    3.6
H     2.5   -8.0   -9.3
C    11.7    4.4    0.3
H    -6.9   10.4    0.6
P    -6.1    3.6  -10.4
H    12.2   -2.8    1.3
N     3.8  -12.0    0.5
H    -6.1   -6.5   -8.9
H    -0.9   10.4   -7.1
I     5.6  -10.2    4.8
I     1.2   -2.5  -12.3
H     9.0    8.8   -1.4
H    -2.7    1.2  -12.3
C    12.3   -3.1    0.3
H     7.8   -5.0   -8.7
H   -10.4    2.7   -6.8
C     3.1   12.3    0.3
H    -1.5   10.4    7.2
I    -8.9    9.1    1.1
P     3.0   11.3   -5.1
H    -9.9    2.7    7.6
H    11.7    5.1    1.1
H    -0.5  -10.5   -7.3
I    -3.5    5.3  -11.2
C    -6.5  -11.1    0.3
H    -9.3    8.8   -1.4
H    11.9    4.9   -0.7
I    -9.9   -6.3    5.2
H    -9.8   -2.9    7.9
I     5.8   -2.4  -11.2
H     2.3   12.7   -0.3
H    12.4    1.0   -3.4
H    -1.7  -10.6    7.2
H    -2.3  -10.6   -7.1
H    -9.7   -2.8   -8.1
I     9.8   -6.3   -5.7
H     3.0    8.9   -8.9
H    -6.2    8.9    7.1
P   -10.7    6.8    2.9
I     1.1   -2.5   12.7
N     2.5    8.4   -9.6
H     3.2    1.0   12.6
I     2.4  -10.2   -7.8
H   -10.8   -2.8   -6.7
N    -9.7    8.4   -2.3
I    -8.4    1.4   -9.9
H     8.5    4.9    8.6
