         400
 sphere cut out from bulk 
I    -1.3    0.2    1.3
I     1.2   -0.1   -2.1
P     1.2    2.1    0.3
P    -1.2   -2.1   -1.0
I     1.2   -3.6    0.3
I     3.6    0.2    1.3
I    -1.4    3.6   -1.3
I    -3.7   -0.1   -2.1
P    -3.8    2.1    0.3
P     3.7   -2.1   -1.0
H    -1.9    0.7    4.1
I     1.1    3.8    2.9
H    -0.5    1.7    4.7
H     0.3    4.0   -3.1
H    -1.2   -4.5    2.0
H     3.0    0.7    4.1
I    -3.7   -3.6    0.3
I     3.6    3.6   -1.2
I    -1.2   -3.5   -3.8
H    -0.3   -3.9    3.5
C    -1.4    1.2    5.0
H     2.0   -0.2   -5.0
H     1.9    3.7   -3.6
C    -1.2   -4.5    3.1
H     0.5   -2.2   -5.1
H    -0.5   -0.5    5.6
H    -2.1   -4.0    3.5
H    -3.5   -0.1   -4.5
N     1.0    4.1   -3.9
H     0.7    3.6   -4.7
H     2.8   -4.0    3.5
I    -3.8    3.8    2.9
H     0.6   -0.0   -6.1
N    -1.1    0.2    6.0
H    -2.1    2.0    5.4
H    -3.1    4.1   -3.3
C     1.5   -0.5   -5.9
C     3.5    1.2    5.0
H     3.7   -4.5    2.0
I     1.2   -2.4    5.7
N     1.2   -2.0   -5.9
I    -6.2    0.2    1.3
I     3.7   -3.5   -3.8
H     2.8    1.9    5.4
H    -2.7    0.5   -5.8
P     6.1    2.1    0.3
I     6.1   -0.1   -2.1
H    -0.5    5.6    3.3
H     2.1   -2.5   -5.7
H    -2.0   -0.4    6.3
N    -3.5   -0.0   -5.6
C     3.7   -4.5    3.1
P    -6.2   -2.1   -1.0
H    -2.6   -1.9   -5.8
H     4.4    1.6    4.7
I    -1.0    2.4   -6.2
H    -2.2    5.6    3.3
H    -0.7    0.6    6.8
H     1.6   -5.9   -3.2
H     2.9   -0.4    6.3
H     4.6   -4.0    3.5
N    -1.2   -5.9    3.7
H     1.4    6.1   -3.2
N    -3.9    4.4   -3.8
H     2.7    5.5    3.3
C     1.1    5.6   -4.1
H    -4.7    4.3   -3.1
H     2.2   -0.3   -6.7
N     3.8    0.2    6.0
I     6.1   -3.6    0.3
H     0.8   -2.3   -6.8
C    -3.5   -1.4   -6.2
I    -3.7   -2.4    5.8
H    -0.3   -6.4    3.3
H     4.5   -0.6    5.7
N    -1.4    6.1    3.7
H    -4.2    3.8   -4.6
H    -4.3    0.5   -5.9
H    -3.5   -5.5   -3.3
I    -6.3    3.6   -1.2
H    -5.4    1.6    4.7
H     5.1    4.3   -3.1
H    -5.2   -4.0    3.5
H     0.2    6.0   -4.5
H    -2.0   -6.4    3.3
H     0.4   -6.0   -4.5
H    -4.4   -1.9   -5.9
H    -1.2   -5.9    4.7
I     6.0    3.8    2.9
I     3.9    2.5   -6.2
C     1.3   -6.4   -4.1
H     6.3   -0.1   -4.5
H     1.9    5.7   -4.9
H    -1.4    6.1    4.7
H     3.0   -6.4    3.3
H     4.4    5.6    3.3
H    -5.4   -0.6    5.7
H    -1.4    7.5    2.0
N     3.8   -5.9    3.7
H    -6.1   -4.5    2.0
N     3.6    6.1    3.7
H    -6.8    0.7    4.1
I    -6.2   -3.5   -3.8
H     5.5    0.5   -5.9
H     4.2    0.6    6.9
H    -3.5   -1.3   -7.2
H    -3.7    6.5   -3.3
C    -6.3    1.2    5.0
C    -3.8    5.9   -4.2
C    -6.1   -4.5    3.1
H     5.7    3.8   -4.6
H     2.1   -6.3   -4.9
H     5.5   -1.9   -5.9
H    -2.8   -6.0   -4.9
H    -3.0    6.0   -4.9
C    -1.4    7.5    3.1
C    -3.6   -6.1   -4.2
N     5.9    4.4   -3.8
H     3.8   -5.9    4.7
N     6.3   -0.0   -5.6
I     1.0    8.4    0.3
H     3.5    6.1    4.7
H     3.5    7.5    2.0
H    -5.5    5.6    3.3
N    -6.1    0.2    6.0
H     4.6   -6.4    3.3
I    -1.2   -8.4   -1.3
I     0.9    2.1    8.3
H     6.8    4.1   -3.3
H     0.5   -8.0   -3.1
I     8.6    0.2    1.3
I     6.2   -2.4    5.8
H    -0.5    8.1    3.5
H    -4.6   -5.9   -4.7
H    -7.0   -4.0    3.5
I     1.3   -8.2    2.9
N     1.2   -7.9   -3.9
C     3.5    7.5    3.1
I    -5.9    2.5   -6.2
P     8.6   -2.1   -1.0
I    -8.7   -0.1   -2.1
H    -5.7    0.6    6.9
H    -5.3   -6.4    3.3
P    -8.7    2.1    0.3
C     6.4   -1.4   -6.2
H     7.9    0.7    4.1
H    -2.9   -7.9   -3.3
H    -2.3    8.0    3.5
H     6.4   -5.5   -3.3
H    -7.0    1.9    5.4
H    -4.8    6.1   -4.7
H     2.6    8.0    3.5
H     5.3   -5.9   -4.7
N    -6.1   -5.9    3.7
I    -0.8   -2.4   -8.9
N    -3.7   -7.6   -3.8
H     5.1    6.1   -4.7
H     2.1   -8.3   -3.6
I    -3.9    8.4    0.3
H     7.2    0.5   -5.8
I     3.8   -8.4   -1.2
I     8.5    3.6   -1.3
H    -7.9   -0.2   -5.0
P     1.2   -4.1    8.3
H    -6.9   -0.4    6.3
I    -8.6   -3.6    0.3
C     6.0    5.9   -4.2
H     7.7   -4.0    3.5
I    -1.4    8.5   -3.8
H    -4.5   -7.7   -3.1
I    -4.0    2.1    8.3
I    -1.3   -6.0    7.2
I    -3.6   -8.2    2.9
H    -8.0    3.7   -3.6
H     7.3   -1.9   -5.8
I    -1.5    6.0    7.2
N    -6.3    6.1    3.7
H     6.2    6.5   -3.3
H    -7.1    5.5    3.3
H     7.8    2.0    5.4
H     0.9   -8.4   -4.7
C     6.2   -6.1   -4.2
H    -6.1   -5.9    4.7
H     6.4   -1.3   -7.2
H     4.4    8.0    3.5
P    -1.1    3.9   -9.0
H     5.4   -7.7   -3.1
C     8.4    1.2    5.0
I     3.5    8.5   -3.8
I    -8.7    3.8    2.9
I     1.4    5.8   -8.0
H    -6.3    6.1    4.7
H    -7.8   -2.5   -5.7
H     8.6   -4.5    2.0
I     3.4    6.0    7.2
H    -6.3    7.5    2.0
P     1.4   -9.9    0.3
H    -6.9   -6.4    3.3
P    -3.7   -4.0    8.4
P    -1.5    9.9   -1.0
I     3.6   -6.0    7.2
H     7.7    5.6    3.3
H     7.9   -0.4    6.3
I     8.7   -3.5   -3.8
I    -1.2   -2.6    9.7
I     4.1   -2.4   -9.0
H    -4.0   -8.2   -4.6
H    -7.6   -0.3   -6.7
I     1.6   -6.2   -8.0
C     8.6   -4.5    3.1
C    -8.3   -0.5   -5.9
I     5.9    8.4    0.3
H     6.9    6.0   -4.9
C    -6.3    7.5    3.1
H    -5.4    8.0    3.5
I     5.8    2.1    8.3
P    -1.6    3.7    9.6
I    -6.1   -8.4   -1.2
N     6.1   -7.6   -3.8
I    -3.5    5.8   -8.0
P     3.8    3.9   -8.9
H     7.1   -6.0   -4.9
N    -8.9    4.1   -3.9
P     3.5    9.9   -1.0
P    -3.6   -9.9    0.3
N     8.7    0.2    6.0
H     9.4    1.7    4.7
I     3.6   -2.5    9.6
I    -8.6   -2.4    5.7
I    -3.3   -6.2   -8.0
H    -8.2   -5.9   -3.2
N    -8.6   -2.0   -5.9
I     1.4    2.3  -10.3
H     7.9   -6.4    3.3
I     6.2   -8.2    2.9
H    -9.6    4.0   -3.1
H    -9.3   -2.2   -5.1
P     3.4    3.7    9.6
H    -8.4    6.1   -3.2
H     9.5   -3.9    3.5
I    -5.8   -2.4   -9.0
H    -9.2    3.6   -4.7
H    -7.9    5.7   -4.9
H     9.4   -0.5    5.6
H     0.3    9.8   -5.1
H     7.0   -7.9   -3.3
I     8.8    2.4   -6.2
H     5.9   -8.2   -4.6
N     8.5    6.1    3.7
H    -9.3   -0.0   -6.1
H    -7.7   -6.3   -4.9
N     8.7   -5.9    3.7
P     6.1   -4.0    8.4
P     1.7   -3.9  -10.3
I    -3.6    2.3  -10.3
C    -8.7    5.6   -4.1
H     1.9    9.4   -5.7
P    11.0    2.1    0.3
I   -11.1    0.2    1.3
I    11.0   -0.1   -2.1
I    -6.2   -6.0    7.2
I     1.0    9.6    5.7
I    -6.4    8.5   -3.8
H    10.1    4.0   -3.1
H    -0.3  -10.3    4.7
H    -7.2    8.0    3.5
P   -11.1   -2.1   -1.0
I    -6.4    6.0    7.2
H     9.3    5.6    3.3
P    -3.3   -3.9  -10.2
C    -8.5   -6.4   -4.1
H   -10.2   -3.9    3.5
H     9.2    0.6    6.8
H     8.4    7.5    2.0
H     8.5    6.1    4.7
H   -10.3    1.7    4.7
P    -6.0    3.9   -8.9
I    -0.8   -9.6   -6.2
H     8.7   -5.9    4.7
P     1.0    7.9    8.3
H     7.5    8.0    3.5
H    -1.9  -10.0    5.4
H    -9.1   -2.3   -6.8
N     1.0   10.0   -5.9
I    11.1   -3.6    0.3
I     6.3    5.8   -8.0
P     6.3   -9.9    0.3
C     8.4    7.5    3.1
I    -6.2   -2.5    9.6
H   -10.3   -0.5    5.6
H    -0.2    0.8  -11.7
H    10.4   -2.2   -5.1
P    -6.4    9.9   -1.0
H     3.0  -10.1    5.4
H     0.6    9.7   -6.8
I   -11.2    3.6   -1.3
I    -3.9    9.6    5.8
H    -7.8   -8.3   -3.6
I    -1.1  -11.8    1.3
I    11.0    3.8    2.9
C    -1.2  -10.8    5.0
H     9.5   -6.4    3.3
H    -2.8   10.1   -5.8
H     1.7   -0.5   11.8
I     6.5   -6.2   -8.0
H    10.4   -0.0   -6.1
H     0.3   -2.5   11.8
I     0.9    5.7   10.6
H    10.5    3.6   -4.7
H    -3.9   -1.4   11.3
I     4.1   -9.5   -6.2
I     1.0   11.9   -2.1
H    -9.5   -6.0   -4.5
H   -11.1   -4.5    2.0
H    -1.7  -11.3    4.1
P    -0.9   -8.1   -9.0
I   -11.0   -3.5   -3.8
I     8.7   -8.4   -1.3
I    -8.8    8.4    0.3
P    -6.5    3.7    9.6
P    -3.9    7.9    8.4
I    -8.5   -8.2    2.9
N    10.8    4.1   -3.9
H    -9.7    6.0   -4.5
H   -10.4    5.6    3.3
H     4.6  -10.4    4.7
I     6.3    2.3  -10.3
N    -8.7   -7.9   -3.9
C   -11.1   -4.5    3.1
I    -8.9    2.1    8.3
C   -11.3    1.2    5.0
I     1.4  -12.1   -2.1
I    -1.5   12.2    1.3
H    -1.5   -0.2  -12.3
I     1.1   -6.3   10.6
I     3.8  -11.8    1.3
H   -11.8    0.7    4.1
C     3.7  -10.8    5.0
H   -10.2   -6.4    3.3
H     3.2  -11.3    4.1
H    -5.2  -10.4    4.7
H    10.0    6.0   -4.5
N   -11.0    0.2    6.0
H     0.1   -0.2   12.5
H    -4.6   10.1   -5.9
I     8.4    6.0    7.2
H   -10.5    0.6    6.8
I     8.5    8.5   -3.8
N    -0.7    0.3  -12.6
H     4.7    0.7  -11.7
I    -1.5    2.2   12.3
I    -4.0    5.6   10.6
P    -8.7   -4.1    8.3
I    -3.9   11.9   -2.1
I     8.6   -6.0    7.2
N    11.1   -2.0   -5.9
I    11.1   -2.4    5.7
H    10.2   -6.0   -4.5
I    -5.7   -9.5   -6.2
C     1.0   -0.7   12.7
I     6.0    9.6    5.8
H    -9.4   -8.0   -3.1
P     4.0   -8.1   -8.9
P    -1.3   -8.3    9.6
P     6.6   -3.9  -10.2
I     3.4   12.2    1.3
H     3.4   -0.2  -12.3
H    -0.7   11.5    5.6
I   -10.9    2.4   -6.2
H     5.2   10.1   -5.9
H     9.3    8.1    3.5
I    -3.5  -12.1   -2.1
H    11.7    3.7   -3.6
H    10.6   -2.3   -6.8
H    11.8   -0.2   -5.0
C    -3.7   10.6   -6.2
C    11.4   -0.5   -5.9
H    -5.2    0.7  -11.7
I    -0.8   -5.8  -11.4
H     5.9   -1.4   11.3
H     1.8   11.7   -5.0
N     0.7   -2.2   12.7
I     1.1   -9.9    8.3
I     9.1   -2.4   -8.9
I    -3.8   -6.4   10.6
H     0.0   -0.4  -12.9
P     5.9    7.9    8.4
C     1.3   11.5   -5.9
I    -8.4    5.8   -8.0
C    11.0    5.6   -4.1
I    -1.0    6.2  -11.4
P     8.4    9.9   -1.0
N   -11.0   -5.9    3.7
I    -8.2   -6.2   -8.0
P    -8.5   -9.9    0.3
H    -2.5  -11.5   -5.8
H   -12.0   -4.0    3.5
I     3.5    2.3   12.4
I    -1.0    9.6   -8.9
C    -4.0   -1.5   12.4
