         400
 sphere cut out from bulk 
I    -0.4    1.0   -0.1
H     0.4   -2.3   -0.7
H    -1.3   -2.3   -0.7
P     2.8    1.1    0.1
N    -0.4   -2.9   -0.8
H    -0.5   -0.0   -3.3
H    -0.4    1.1    3.2
H    -0.4   -3.4    1.3
I     2.8   -1.5   -1.9
H     0.5    1.5   -3.4
H    -0.4   -3.3   -1.7
P    -3.6    1.1    0.1
I     2.8   -0.8    2.6
C    -0.4   -3.9    0.3
C    -0.1    0.7   -4.0
C    -0.4    0.6    4.2
H     0.5    0.0    4.3
I    -3.6   -1.5   -1.9
H    -1.3   -0.1    4.3
I    -3.6   -0.8    2.6
H     0.6   -4.5    0.2
H     0.5    4.5    0.2
H    -1.3    4.4    0.2
H    -1.2   -4.6    0.2
H    -1.9    1.8   -4.0
H     0.6    0.3   -4.7
I     2.8    3.0   -2.6
I     2.8    3.7    1.9
N    -1.2    1.4   -4.7
C    -0.4    5.1    0.3
I    -3.6    3.0   -2.6
N    -0.5    1.6    5.2
I    -3.6    3.7    1.9
H    -1.8    0.7   -5.2
I    -0.4   -3.4   -4.4
H     5.1   -2.3   -0.7
H     0.3    2.2    5.2
I    -0.4   -3.5    4.6
H    -0.5    5.6    1.3
H    -1.3    2.2    5.2
H    -0.9    2.1   -5.3
H    -0.5    5.7   -1.7
I     6.0    1.0   -0.1
N    -0.5    6.1   -0.8
P     2.8   -3.4    4.4
P     2.8   -3.4   -4.5
H    -0.4    1.2    6.2
I     2.8   -5.3    1.9
H     4.6    1.8   -4.0
H    -6.0   -2.3   -0.7
P    -3.6   -3.4    4.4
H     5.2   -0.1    4.3
I    -3.6   -5.3    1.9
N     6.0   -2.9   -0.8
P    -3.6   -3.4   -4.5
H     5.1    4.4    0.2
H     0.3    6.7   -0.7
H     5.9   -0.0   -3.3
H    -1.4    6.7   -0.7
H     6.0    1.1    3.2
I    -6.8    1.0   -0.1
H     5.2   -4.6    0.2
H     4.6    0.7   -5.2
H    -6.0    1.5   -3.4
H     6.0   -3.4    1.3
I     2.9   -0.8   -6.4
H     6.0   -3.3   -1.7
I    -0.5    5.6   -4.4
N     5.2    1.4   -4.7
I     2.9   -6.0   -2.6
I    -0.4    5.5    4.6
H     6.8   -2.3   -0.7
C     6.0   -3.9    0.3
H    -5.9    0.0    4.3
I    -3.5   -0.8   -6.4
C     6.0    0.6    4.2
H    -5.9   -4.5    0.2
I    -3.5   -6.0   -2.6
H    -5.9    4.5    0.2
N    -6.8   -2.9   -0.8
C     6.3    0.7   -4.0
H    -5.8    0.3   -4.7
I     2.8    3.0    6.4
H     5.1    2.2    5.2
H    -6.9    1.1    3.2
C    -6.5    0.7   -4.0
P     2.7    5.6   -4.5
H    -6.9   -0.0   -3.3
P     2.8    5.6    4.4
H    -6.8   -3.4    1.3
H    -6.8   -3.3   -1.7
I     2.9   -1.5    7.1
H     6.9    1.5   -3.4
C    -6.8   -3.9    0.3
C     6.0    5.1    0.3
I    -3.7    3.0    6.4
H     5.5    2.1   -5.3
I    -0.3   -8.0   -0.1
C    -6.8    0.6    4.2
P    -3.7    5.6    4.4
P    -3.7    5.6   -4.5
N     5.9    1.6    5.2
I    -3.6   -1.5    7.1
H    -7.7   -2.3   -0.7
H     6.9    0.0    4.3
I     2.7    7.5   -1.9
I     6.0   -3.4   -4.4
H     6.9    4.5    0.2
H     5.9    5.6    1.3
H     0.5   -7.5   -3.4
H     7.0   -4.5    0.2
H    -6.1    2.2    5.2
I     6.0   -3.5    4.6
H     5.9    5.7   -1.7
H     5.0    6.7   -0.7
P     2.9   -7.9    0.1
H    -1.8   -7.2   -4.0
H     7.0    0.3   -4.7
H     0.5   -3.0    7.9
H    -0.9   -2.4   -8.1
I     2.9    3.7   -7.1
N     5.9    6.1   -0.8
H    -0.4   -7.9    3.2
H     0.4   -6.8    5.2
C    -6.9    5.1    0.3
I    -3.7    7.5   -1.9
P    -3.5   -7.9    0.1
H     6.0    1.2    6.2
H    -1.3   -6.9    5.2
I    -3.5    3.7   -7.1
H    -0.8   -6.9   -5.3
H    -7.7   -0.1    4.3
N    -6.9    1.6    5.2
I    -6.8   -3.4   -4.4
H     6.8    2.2    5.2
H    -7.7    4.4    0.2
I    -6.8   -3.5    4.6
H    -7.6   -4.6    0.2
H    -6.9    5.6    1.3
I    -0.4    1.1    8.9
I     2.7    8.2    2.6
N    -1.1   -7.6   -4.7
H    -0.5    4.5    7.8
H    -0.5   -4.5    7.8
N    -7.6    1.4   -4.7
H    -6.9    5.7   -1.7
H    -1.8   -2.7    8.5
N    -0.4   -7.4    5.2
I    -0.4    1.1   -9.0
H    -6.1    6.7   -0.7
C    -0.0   -8.3   -4.0
I     2.8   -6.0    6.4
H    -1.8   -3.8   -8.2
N    -6.9    6.1   -0.8
P     9.2    1.1    0.1
C    -0.0   -3.8    8.5
I     6.0    5.6   -4.4
H    -6.9    1.2    6.2
H    -7.3    2.1   -5.3
I     2.9   -5.3   -7.1
I    -3.7    8.2    2.6
I     6.0    5.5    4.6
N    -1.2   -3.1   -8.7
H    -8.3    1.8   -4.0
C    -0.3   -8.4    4.2
H     4.6   -7.2   -4.0
P     2.8    1.1   -9.0
P     2.8    1.1    9.0
I    -3.6   -6.0    6.4
I    -3.5   -5.3   -7.1
I     9.2   -1.5   -1.9
H     6.7    6.7   -0.7
H    -0.6    9.0   -3.3
H    -7.8    2.2    5.2
I     9.2   -0.8    2.6
H    -0.4   -9.0   -3.3
H     0.6   -4.2   -8.7
P    -3.7    1.1   -9.0
P    -3.7    1.1    9.0
H    -8.2    0.7   -5.2
N    -1.2   -3.1    9.2
I    -6.9    5.6   -4.4
H    -1.8    5.2   -8.2
H     0.4    6.0    7.9
I    -6.9    5.5    4.6
H     0.5    4.8   -8.7
H    -1.7   -8.3   -5.2
H     0.6   -9.0    4.3
H     0.6   -8.7   -4.7
C    -0.1    5.2    8.5
H    -1.3    8.9    4.3
H    -1.8   -2.7   -9.4
H     0.5    9.0    4.3
H    -0.4   -7.9    6.2
H     4.6   -2.7    8.5
H     5.1   -6.9    5.2
I     6.1   -8.0   -0.1
I    -0.5   10.0   -0.1
I     9.2    3.0   -2.6
I     9.2    3.7    1.9
P   -10.0    1.1    0.1
H     5.6   -2.4   -8.1
H    -1.2   -9.1    4.3
H    -5.9   -7.5   -3.4
H    -0.9   -2.4    9.8
H     0.6   -4.2    9.2
C    -0.0   -3.8   -9.4
H     4.6   -3.8   -8.2
H    -7.8    6.7   -0.7
I   -10.0   -1.5   -1.9
H    -5.9   -3.0    7.9
H     5.6   -6.9   -5.3
I   -10.0   -0.8    2.6
N     5.3   -7.6   -4.7
H     0.5    4.8    9.2
H    -6.0   -6.8    5.2
H     0.5    9.3   -4.7
H     6.0   -7.9    3.2
I    -6.8   -8.0   -0.1
C    -0.5    9.6    4.2
H     0.5   -3.0  -10.0
P     2.7   10.1    0.1
H    -0.9    6.6   -8.1
C    -0.1    9.7   -4.0
I     2.9   -9.8    2.6
H    -1.8   -3.8    9.7
H    -0.5   10.1    3.2
N    -1.2    5.9   -8.7
N     5.2   -3.1   -8.7
I     2.8    7.5    7.1
I    -3.5   -9.8    2.6
H     4.6    5.2   -8.2
H     5.9    4.5    7.8
I     2.8    8.2   -6.4
I   -10.0    3.0   -2.6
H    -1.9    6.3    8.5
P    -3.7   10.1    0.1
P     9.2   -3.4    4.4
I     6.0    1.1    8.9
P     9.2   -3.4   -4.5
C    -0.1    5.2   -9.4
H     6.9   -7.5   -3.4
H     4.6   -2.7   -9.4
H     6.0   -4.5    7.8
I     9.3   -5.3    1.9
H     4.7   -8.3   -5.2
I   -10.0    3.7    1.9
I     6.0    1.1   -9.0
N     6.0   -7.4    5.2
H    -6.8   -7.9    3.2
H     6.9   -3.0    7.9
H     6.8   -6.8    5.2
I    -3.6    7.5    7.1
I    -3.6    8.2   -6.4
N    -1.2    5.9    9.2
N     5.2   -3.1    9.2
H     0.4   10.5   -3.4
H    -0.5    4.5  -10.1
I     2.9  -10.5   -1.9
H    -0.5   -4.5  -10.1
H     5.1    8.9    4.3
H    -7.3   -2.4   -8.1
H    -1.8    5.2    9.7
H    -1.9    9.7   -5.2
C     6.1   -8.4    4.2
C     6.4   -8.3   -4.0
H     5.9    9.0   -3.3
C    -6.4   -8.3   -4.0
C     6.4   -3.8    8.5
I    -3.6  -10.5   -1.9
H    -5.8   -4.2   -8.7
I    -6.8    1.1    8.9
H     0.5  -11.3   -0.7
I     2.9   -1.5  -10.8
C    -6.5   -3.8    8.5
H     5.2   -9.1    4.3
I     9.3   -0.8   -6.4
H    -7.2   -6.9   -5.3
N    -6.8   -7.4    5.2
H    -6.9   -4.5    7.8
H     6.0   -9.0   -3.3
H    -6.9    4.5    7.8
I    -6.8    1.1   -9.0
I     9.3   -6.0   -2.6
H     4.6   -3.8    9.7
P   -10.0   -3.4    4.4
H    -1.2  -11.4   -0.7
I   -10.0   -5.3    1.9
N    -1.3   10.4   -4.7
H    -5.8   -8.7   -4.7
I    -3.6   -1.5  -10.8
P   -10.0   -3.4   -4.5
H    -5.8   -9.0    4.3
H     4.5    6.3    8.5
H    -5.9    4.8   -8.7
H    -1.9    6.3   -9.4
H    -7.7   -6.9    5.2
H     5.6   -2.4    9.8
I     9.2    3.0    6.4
C    -6.8   -8.4    4.2
H    -6.0    6.0    7.9
H    -8.2   -7.2   -4.0
P     9.1    5.6   -4.5
H    -6.0    9.0    4.3
P     9.2    5.6    4.4
I     5.9   10.0   -0.1
H     0.4    6.0  -10.0
H     6.0   -7.9    6.2
H    -5.8   -4.2    9.2
N    -7.6   -7.6   -4.7
H    -1.9   10.9   -4.0
N     5.2    5.9   -8.7
H    11.5   -2.3   -0.7
I     9.3   -1.5    7.1
C     6.3    5.2    8.5
I    -9.9   -0.8   -6.4
H    -0.4    1.2  -11.7
I     2.9    3.7   10.8
H     5.5    6.6   -8.1
H    -6.8   -9.0   -3.3
H    11.0    1.8   -4.0
H    -7.0    9.0   -3.3
N    -0.5   10.6    5.2
H    -0.9    6.6    9.8
H    -0.5   10.2    6.2
C    -6.5    5.2    8.5
I    -9.9   -6.0   -2.6
H     4.5    9.7   -5.2
I    -0.3   -7.9    8.9
H     4.6    5.2    9.7
N    -0.4  -11.9   -0.8
H    -5.9    4.8    9.2
H     7.0   -4.2   -8.7
I     2.9   -0.8   11.6
I     9.1    7.5   -1.9
H    -5.9    9.3   -4.7
I    -3.5    3.7   10.8
N    -7.6   -3.1   -8.7
C     6.4   -3.8   -9.4
I    -0.3   -7.9   -9.0
C     5.9    9.6    4.2
H    -5.9   -3.0  -10.0
H     6.8    6.0    7.9
C    -6.5   -3.8   -9.4
I     3.0   -9.8   -6.4
N     5.2    5.9    9.2
H    -6.8   -7.9    6.2
H     6.9    9.0    4.3
H    -8.2   -2.7    8.5
I    -3.5   -0.8   11.6
H     7.0    4.8   -8.7
H     5.9   10.1    3.2
H     7.0   -9.0    4.3
I    -6.9   10.0   -0.1
P     9.3   -7.9    0.1
I    -3.4   -9.8   -6.4
H     7.1   -8.7   -4.7
H    -8.2   -3.8   -8.2
H    11.0    0.7   -5.2
I     2.8    3.0  -11.5
C     6.3    9.7   -4.0
H     4.5    6.3   -9.4
I     9.3    3.7   -7.1
I   -10.1    3.0    6.4
P     2.8   -7.9   -9.0
P     2.8   -7.9    9.0
N    -7.6   -3.1    9.2
H    11.6   -0.1    4.3
I   -10.0   -1.5    7.1
H     7.0   -4.2    9.2
P   -10.1    5.6    4.4
H    11.5    4.4    0.2
P   -10.1    5.6   -4.5
H    -1.0   11.1   -5.3
H    -1.4   11.2    5.2
C    -6.6    9.7   -4.0
H     0.3   11.3    5.2
H     4.5   10.9   -4.0
I     2.9   -5.3   10.8
H    -7.3   -2.4    9.8
I    12.4    1.0   -0.1
H    -0.3  -12.4   -1.7
H    11.6   -4.6    0.2
I    -3.7    3.0  -11.5
H    -0.3  -12.4    1.3
P    -3.6   -7.9   -9.0
P    -3.6   -7.9    9.0
H     5.2  -11.4   -0.7
C     6.3    5.2   -9.4
H     7.0    4.8    9.2
H     6.9    9.3   -4.7
N     5.1   10.4   -4.7
C    -6.9    9.6    4.2
H     5.9    4.5  -10.1
H     6.9   -3.0  -10.0
I     9.2    8.2    2.6
H    -7.7    8.9    4.3
I    -3.5   -5.3   10.8
H    -6.0   10.5   -3.4
I     2.8   12.0   -2.6
