         400
 sphere cut out from bulk 
P     0.4    0.1   -1.0
I    -1.6    0.5    1.6
I     0.4   -3.1   -0.3
I     3.0    0.5    0.9
H     0.6   -2.6    2.2
H    -0.5   -1.6    3.0
I     0.3    3.2   -1.6
I    -2.3   -0.4   -2.8
N     0.2   -2.3    3.1
H    -2.9    2.3   -1.4
H    -0.7    2.4    3.2
H    -3.2   -2.3   -1.3
H     1.3    3.3    2.2
I     2.3   -0.4   -3.6
H     1.0   -1.9    3.7
H     3.5   -2.2   -0.8
H     1.7    2.4    3.7
H    -3.6   -3.1    0.1
H    -3.3    3.4    0.7
C     1.2    3.3    3.3
N    -0.2    3.3    3.6
N    -3.7   -3.1   -0.9
C    -3.6    3.2   -1.4
H     4.5    2.4    0.2
H    -0.6   -3.1   -4.0
H    -1.1   -3.9    3.2
C    -0.3   -3.5    3.8
C     4.0   -3.1   -1.3
N    -4.1    3.3    0.0
H    -3.2   -3.9   -1.3
H    -4.7    2.4    0.2
H    -0.7    4.1    3.2
H    -3.0    4.1   -1.6
H     0.9    3.5   -4.0
H     3.6   -4.0   -0.8
P    -4.3   -0.0    3.4
H     3.9   -3.1   -2.4
H    -0.3    3.3    4.7
H     0.5   -4.3    3.9
H    -4.4    3.1   -2.0
I     2.3   -0.4    5.3
I    -4.1   -3.1    2.7
H    -0.6   -3.2    4.8
H     1.4   -2.3   -5.2
H     1.6    4.2    3.7
P     4.9   -0.0    3.4
H     4.7    3.1   -2.0
N     5.0    3.3    0.0
H     0.5    1.8   -5.7
C    -0.5   -3.1   -5.1
H     4.4    4.1    0.1
H    -1.0   -2.2   -5.6
H    -5.6   -2.2   -0.8
C    -5.1   -3.1   -1.3
H    -4.7    4.1    0.1
I    -1.7    5.8    1.6
I    -6.2    0.5    0.9
N     1.2    3.7   -5.0
P     0.3   -6.3   -0.9
N     5.5   -3.1   -0.9
H     5.6   -3.1    0.1
I    -2.3   -0.4    6.0
N     0.9   -3.1   -5.5
P     0.4    6.4   -0.9
H     5.9   -2.3   -1.3
H     2.2    3.4   -5.0
H    -5.2   -3.1   -2.4
I     5.1   -3.1    2.7
C     5.6    3.2   -1.4
C     0.4    2.9   -5.9
H     1.4   -4.0   -5.1
I     2.9    5.9    1.0
H    -0.7    3.2   -5.8
I    -4.3    3.2    4.1
H     5.8    3.4    0.7
H     6.2    2.3   -1.4
I    -2.3   -5.8   -2.8
P    -4.3    0.0   -5.4
H    -1.0   -4.0   -5.5
H    -5.6   -4.0   -0.8
I     4.8    3.2    4.1
H     1.1    4.7   -5.2
I     2.3   -5.8   -3.5
I    -1.7   -6.8    1.6
H     5.9   -3.9   -1.3
P     4.9    0.0   -5.4
I    -4.4    3.2   -4.9
H     1.0   -3.2   -6.6
I     2.9   -6.7    1.0
I     6.8   -0.4   -2.8
I     4.7    3.2   -4.9
H     6.1    4.1   -1.6
I    -1.8    0.4   -7.4
H     0.7    3.1   -7.0
I    -2.3    6.8   -2.8
I     7.6    0.5    1.6
I    -6.9   -0.4   -3.6
P     0.3    0.0    7.8
I     0.1    3.2    7.2
I    -4.2   -3.1   -6.0
I     2.3    6.9   -3.5
I     2.3   -5.8    5.4
H     4.0   -3.2    6.6
P    -4.3   -6.2    3.5
H    -4.4    2.7    6.6
I     5.0   -3.1   -6.0
H    -3.4    1.7    7.5
I     2.9    0.4   -7.9
P    -4.3    6.4    3.5
H     4.7    2.7    6.6
H    -3.2   -2.3    7.6
P     4.8   -6.2    3.5
I    -6.2    5.9    1.0
H    -7.5    2.4    3.7
I    -2.3   -5.8    6.0
I    -6.8   -0.4    5.3
H    -7.9    3.3    2.2
P     4.9    6.4    3.5
P    -8.8    0.1   -1.0
H    -5.2   -3.2    6.6
N    -4.1    2.4    7.6
I     2.3    6.8    5.4
I     0.4   -3.1    8.5
I     6.8   -0.4    6.0
H     3.6   -2.3    8.0
H    -8.1   -1.9    3.7
H    -0.8   -8.5    3.2
H    -3.2   -4.0    7.6
H    -2.8    4.1    7.7
C    -7.9    3.3    3.3
H    -8.6   -2.6    2.2
H    -3.1   -8.5   -1.6
C     4.1   -3.2    7.6
I    -6.3   -6.7    1.0
H    -6.9    3.4   -5.0
H     0.5    8.4    3.9
P    -4.2   -6.3   -5.4
H     8.6   -1.6    3.0
P    -4.1    6.4   -5.4
I    -8.8   -3.1   -0.3
H     4.2    2.0    8.1
N    -3.6   -3.1    8.0
H     1.6   -8.4    3.7
H    -7.5    4.2    3.7
H     8.4    2.4    3.2
H    -3.2    8.7   -1.3
H    -1.1    8.7    3.2
I     6.8   -5.8   -2.8
H     3.6    8.6   -0.8
I    -2.3    6.9    6.0
N     5.0    2.4    7.6
H     8.0   -3.9    3.2
I    -1.6    5.9   -7.2
I     0.2   -9.4   -1.6
H     1.1   -7.9   -5.2
P     9.5    0.1   -1.0
H    -7.7   -2.3   -5.2
H    -3.4    3.3   -8.3
I     0.4    9.6   -0.3
I    -8.9    3.2   -1.6
H     4.4   -8.5    0.1
I     7.5    5.8    1.6
H     5.8    1.7    7.5
P     4.9   -6.3   -5.4
I    -6.9   -5.8   -3.5
I     0.4   -3.2   -9.1
H     1.2   -9.3    2.2
H    -4.9    2.0    8.1
P     5.0    6.4   -5.4
N    -8.9   -2.3    3.1
C    -5.1   -3.2    7.6
H     3.6   -4.1    8.1
C    -3.7    3.7    8.3
H    -4.8   -8.5    0.1
P     0.3   -0.0   -9.8
H    -3.5   -3.2   -8.6
H    -8.2    3.5   -4.0
C    -0.3    9.1    3.8
H     8.4    4.1    3.2
H    -3.4   -9.3    0.7
H     6.0   -2.3    7.6
C     1.2   -9.3    3.3
H     8.6   -3.1   -4.0
I    -1.6   -6.7   -7.2
I     9.5   -3.1   -0.3
H     0.8   -9.1   -4.0
H    -5.6   -2.3    8.0
N    -0.3   -9.4    3.6
I     9.4    3.2   -1.6
N    -7.9    3.7   -5.0
H    -7.7   -4.0   -5.1
I     6.9    6.8   -2.8
P     0.4   -6.3    7.9
I     2.9    0.5    9.7
H     8.2   -2.2   -5.6
I    -6.3    0.4   -7.9
P     0.4    6.4    7.9
N     8.9    3.3    3.6
N     9.4   -2.3    3.1
H    -3.5    9.5    0.1
H     1.4    8.7   -5.1
H    -3.5   -3.1    9.1
H    -9.6   -1.6    3.0
C    -3.6   -9.4   -1.4
I     7.4   -6.8    1.6
N     5.5   -3.1    8.0
I     2.9    5.9   -7.8
C     8.8   -3.5    3.8
N    -4.1   -9.4    0.0
N    -3.6    9.5   -0.9
H     8.5   -3.2    4.8
H     9.7   -2.6    2.2
H    -0.9    8.6   -5.5
H    -5.5    8.6   -0.8
I    -6.8    6.9   -3.5
N     1.1   -9.0   -5.0
H     0.6   10.1    2.2
H    -4.5    4.4    8.3
H    -8.6   -4.3    3.9
I    -1.8    0.5   10.2
N    -8.2   -3.1   -5.5
H    -0.5    9.6   -4.0
I     7.4    0.4   -7.4
C     4.1    9.5   -1.3
H    -3.4    3.4    9.3
H     4.7    4.4    8.3
H    -0.4   -9.4    4.7
H     8.8    3.3    4.7
I    -6.8   -5.8    5.4
H     3.6   -2.4   -9.6
H     6.0   -4.0    7.6
H    -8.6    1.8   -5.7
C     8.6   -3.1   -5.1
N    -9.4    3.3    3.6
C     5.5    3.7    8.3
H    -0.6    9.4    4.8
H     4.2    1.9   -9.5
H     4.0    9.5   -2.4
H     6.1   -8.5   -1.6
H    -5.5   -4.1    8.1
N     5.0   -9.4    0.0
H    -9.8    2.4    3.2
H     5.7    3.3   -8.3
H     6.0    8.7   -1.3
H     8.2   -4.0   -5.5
H    -8.0    4.7   -5.2
C    -3.7    3.6   -9.3
I     2.8   -6.7   -7.8
I    -4.0    9.5    2.7
H     5.6   -3.2   -8.6
H     2.2   -9.2   -5.0
H    -4.5   -9.5   -2.0
H    -0.7  -10.2    3.2
N    -3.6   -3.2   -9.6
C    -9.4   -3.5    3.8
H     8.5    3.2   -5.8
H    -3.4    1.6  -10.1
H    -3.2   -2.4  -10.0
I     6.8   -5.8    6.0
N     0.3   10.3    3.1
H     6.4    4.1    7.7
H     4.7   -9.5   -2.0
C    -0.5    9.5   -5.1
H    -3.0  -10.3   -1.4
I   -10.7    0.5    1.6
P    -8.8   -6.3   -0.9
C    -5.1    9.5   -1.3
I     0.1    3.1  -10.4
P    -8.8    6.4   -0.9
H    -4.9    1.9   -9.5
H    -8.1   -3.2   -6.6
H    -3.2   10.4   -1.3
H    10.1   -1.9    3.7
H    -9.7   -3.1   -4.0
H     5.8   -9.3    0.7
C    -8.7    2.9   -5.9
H     1.6  -10.2    3.7
H     3.6   -4.2   -9.5
H    -2.8    4.0   -9.9
I    -6.8    6.8    5.4
C     5.5   -9.4   -1.4
N     1.0    9.5   -5.5
N     5.5    9.5   -0.9
H    -9.5    3.3    4.7
H     3.6   10.4   -0.8
H     5.6    9.5    0.1
H     5.6   -3.1    9.1
H    -5.2    9.5   -2.4
N    -4.1    2.4  -10.1
H    10.4    3.3    2.2
H     0.8    3.2   10.7
H     4.4  -10.2    0.2
H    -9.9    4.1    3.2
H    -0.7   -9.5   -5.8
I     5.1    9.5    2.7
I    -4.3   -9.5    4.1
H     9.6   -4.3    3.9
H    -4.5    4.3   -9.3
H    -3.2   -4.1  -10.0
C     4.0   -3.3  -10.0
H    -4.7  -10.2    0.2
H     4.7    4.3   -9.3
H    -5.6   -2.4   -9.6
C    10.3    3.3    3.3
H    -8.4    3.1   -7.0
H    10.0    3.5   -4.0
H    -9.8   -3.2    4.8
C    -9.6   -3.1   -5.1
I     4.8   -9.5    4.1
P     9.4   -6.3   -0.9
H     9.7    1.8   -5.7
C     5.5    3.6   -9.3
I     6.9    6.9    6.0
H     1.0   10.8    3.7
C     0.3   -9.8   -5.9
H   -10.3   -3.9    3.2
H     5.8    3.4    9.3
H    -0.5   11.1    3.0
N     5.0    2.4  -10.1
P     9.5    6.4   -0.9
H     1.0   -3.1   11.0
N     5.5   -3.2   -9.6
I    -4.5   -9.4   -4.9
I    -6.3    0.5    9.7
P     0.4    6.3   -9.7
H     1.1    9.5   -6.6
C     9.5    2.9   -5.9
I    -6.2    5.9   -7.8
I     4.7   -9.4   -4.9
P     0.3   -6.4   -9.7
C    -5.1   -3.3  -10.0
H     1.4   10.4   -5.2
H    10.8    2.4    3.7
H     5.7    1.6  -10.1
H   -10.1   -2.2   -5.6
H    -5.5   -4.2   -9.5
P    -8.8    0.0    7.8
I   -11.4   -0.4   -2.8
H     0.7   -9.5   -7.0
H    -9.8    3.2   -5.8
H    -5.5   10.4   -0.8
H    -0.9   10.4   -5.6
I     0.1   -9.4    7.2
H     5.9   -2.4  -10.0
I     2.9    6.0    9.8
H    -7.5   -8.4    3.7
N    10.1   -3.1   -5.5
I    -2.3   -0.5  -11.7
H    -2.8   -8.6    7.7
I    -9.0    3.2    7.2
I    11.4   -0.4   -3.6
H    10.5   -2.3   -5.2
H    -3.1    8.7    7.6
I    -4.1    9.5   -6.0
I     7.5    5.9   -7.2
H     6.0   10.4   -1.3
I    -6.3   -6.7   -7.8
C     0.4    3.0   11.7
N    10.3    3.7   -5.0
H     0.5    1.9   11.9
H     6.2  -10.3   -1.4
I    -1.6    6.0   10.4
I    12.1    0.5    0.9
H    10.8    4.2    3.7
H    -4.4    2.6  -11.0
I     9.3    3.2    7.2
H     4.0    9.4    6.6
I     2.9   -6.6    9.8
H     4.0   -3.3  -11.1
H   -10.1   -4.0   -5.5
H    -0.6    3.3   11.8
H     0.5  -10.8   -5.7
H     4.7    2.6  -11.0
H    -1.0   -2.1   12.1
P     9.5    0.0    7.8
H     8.0    8.7    3.2
I     5.0    9.5   -6.0
H     6.0   -4.1  -10.0
I    -1.6  -12.1    1.6
H     3.7    8.6    8.1
H   -12.1    2.3   -1.4
H    10.5   -4.0   -5.1
I   -10.8    5.8    1.6
I     7.5   -6.7   -7.2
H     6.3    4.0   -9.9
H     8.4   -8.5    3.2
H    10.3    4.7   -5.2
H    -7.9   -9.3    2.2
I    -1.6   -6.6   10.4
H    -8.1   -7.9   -5.2
H     9.9    3.1   -7.0
H    10.1   -3.2   -6.6
N     0.9   -3.0   12.1
I     2.9  -12.1    0.9
H    -4.5   -8.2    8.3
I     2.3   -0.5  -12.3
H     4.6   -8.2    8.3
I    -8.7   -3.1    8.5
P     0.3  -12.5   -1.0
H    -5.1    9.4    6.6
