         400
 sphere cut out from bulk 
P     1.1    0.0   -0.9
I    -1.6    1.8   -0.4
I     1.7    0.1    2.3
I    -0.5   -2.8   -0.9
H    -3.4    0.0    0.9
H    -2.0    0.1    3.0
H     1.1    3.3    1.4
I     0.5   -0.1   -4.0
H    -2.0    0.2   -3.6
I     2.9    2.9   -0.9
N    -3.8   -0.3    1.8
H    -3.6   -1.4    1.8
H    -3.4   -0.0   -2.7
C    -3.1    0.3    3.1
H     0.1    3.5    2.7
I     3.9   -1.7   -1.4
N     0.6    4.0    2.0
H     2.0   -3.5    1.9
H     4.2   -0.2    1.8
H     1.1   -3.3   -3.1
H    -3.3    1.4    3.0
H    -0.1    4.5    1.4
H    -0.1   -4.5    1.4
N    -3.0    0.4   -3.6
H     0.9   -3.4    3.3
H    -3.2    1.4   -3.6
H     0.2    3.5   -3.6
C     1.5   -4.1    2.7
H    -4.8   -0.2    1.8
H    -3.5   -0.1    3.9
N     0.6   -5.0    2.0
I    -5.1   -1.7   -1.4
N     5.2   -0.3    1.8
I    -3.3   -3.9    2.3
P    -3.4   -4.4   -0.9
N     1.6   -4.0   -3.7
H     5.6    0.0    0.9
P    -3.3    4.6   -0.9
P     1.4    0.3    5.6
I    -0.8    2.6    5.1
C     1.5    4.9    2.7
H     5.4   -1.4    1.8
H     2.2    4.4    3.3
I    -0.8   -1.9    5.5
H     2.3   -4.5   -3.1
H     1.1   -5.7    1.4
H     2.3    4.5   -3.1
H     2.2   -3.4   -4.5
C     0.7    4.1   -4.4
H    -3.5   -1.4   -4.8
C    -3.7   -0.3   -4.8
H     2.2   -4.7    3.3
H     2.1    5.5    1.9
H     0.0   -5.5    2.7
H     1.3    3.4   -5.0
H     5.6   -0.0   -2.7
I    -0.5    6.3   -0.9
H     4.3   -0.1   -4.7
N     1.7    5.0   -3.7
I    -3.3    5.1    2.3
H     0.1   -5.5   -3.6
H    -3.2    0.1   -5.7
H     1.0    5.6    3.3
H     1.2    5.7   -3.1
C     0.7   -4.9   -4.4
H     5.7    1.4    3.0
I    -3.5    3.9   -4.1
H    -0.0   -4.4   -5.0
C     5.9    0.3    3.1
H    -4.7   -0.1   -4.7
H     5.5   -0.1    3.9
I     2.8   -6.1   -0.9
H     0.0    4.7   -5.0
I    -6.2    2.9   -0.9
N     6.0    0.4   -3.6
H     5.8    1.4   -3.6
C     5.3   -0.3   -4.8
I     3.7    2.6    5.6
P     5.6   -4.4   -0.9
I     5.7   -3.9    2.3
P     5.7    4.6   -0.9
I     3.6   -1.9    6.1
I    -3.5   -5.1   -4.1
P     0.8   -0.3   -7.3
I    -1.6   -7.2   -0.4
H     5.5   -1.4   -4.8
H     2.2    5.6   -4.5
H     7.0    0.1    3.0
P    -3.1   -4.2    5.6
H     1.2   -5.6   -5.0
I     7.4    1.8   -0.4
I    -7.3    0.1    2.3
H    -2.6    0.8    7.2
I     3.0   -2.6   -6.8
H     7.0    0.2   -3.6
P    -7.9    0.0   -0.9
I     5.6    3.9   -4.1
I    -1.5   -2.6   -7.4
P    -3.0    4.9    5.6
I     5.7    5.1    2.3
H    -7.0   -3.5    1.9
H     5.8    0.1   -5.7
I     3.0    2.0   -7.3
I    -5.3    2.6    5.6
I    -0.8   -6.4    5.1
I    -1.4    2.0   -7.8
I    -5.4   -1.9    6.1
I     3.9    7.3   -1.4
I     5.5   -5.1   -4.1
H    -2.8   -0.7    8.1
C    -3.0    0.4    8.1
H    -3.6    7.6    1.8
H    -6.7   -4.5   -3.1
H    -6.7    4.5   -3.1
H    -7.9    3.3    1.4
H    -6.8    4.4    3.3
H     0.6   -3.7    7.9
I    -6.2   -6.1   -0.9
H    -3.3   -7.6    3.0
H    -6.9   -3.4   -4.5
H    -6.8   -4.7    3.3
I     8.5   -2.8   -0.9
C    -7.5   -4.1    2.7
I     1.2    0.6    8.9
H    -3.2   -7.6   -3.6
I    -5.1    7.3   -1.4
I    -0.8    7.1    5.5
H    -6.9    5.5    1.9
P     1.1   -9.0   -0.9
H     2.0    4.1    7.9
H    -7.9   -3.3   -3.1
P     5.9   -4.2    5.6
H    -4.1    0.6    8.2
P     1.2    9.1   -0.9
N    -7.4   -4.0   -3.7
P    -3.7    4.2   -7.3
I     3.6   -6.4    5.6
H     2.8   -2.8    8.4
C    -7.5    4.9    2.7
H    -8.1   -3.4    3.3
I    -8.5   -0.1   -4.0
I     1.6   -8.9    2.3
P    -7.6    0.3    5.6
H    -1.3    0.9    9.3
I    -6.0   -2.6   -6.8
P     6.0    4.9    5.6
H     1.9   -5.0    7.9
N    -8.4    4.0    2.0
I     1.7    9.1    2.3
P    -3.8   -4.8   -7.3
H     0.7    5.3    7.9
H     4.9    0.6    8.2
H     5.4    7.6    1.8
H    -2.1   -8.9    3.0
N    -3.7    8.7    1.8
C     1.3   -4.3    8.5
I    -6.0    2.0   -7.3
N    -2.4    1.0    9.3
H    -3.4   -9.0    0.9
N    -7.4    5.0   -3.7
H    -3.5    7.7   -4.8
H    -3.3    9.0    0.9
H     6.4    0.8    7.2
H    -2.0   -8.8   -3.6
C    -3.1   -8.7    3.1
H    -7.7    3.4   -5.0
I     0.6    8.9   -4.0
H    -2.0    9.1    3.0
I     3.0    6.4   -6.8
H    -2.5    2.1    9.3
N    -3.1   -8.6   -3.6
C     1.4    4.8    8.5
I    -1.4    6.4   -7.4
H    -6.8    5.6   -4.5
H    -7.9   -5.7    1.4
I     0.5   -9.1   -4.0
H    -4.2   -0.8   -9.0
H     4.3    8.8    1.8
H    -8.9    3.5    2.7
P     5.3    4.2   -7.3
H     5.7   -7.6    3.0
I    -9.6   -2.8   -0.9
H    -3.4    9.0   -2.7
N     2.3   -3.3    9.2
I     3.7    7.1    6.1
H    -3.4   -9.0   -2.7
I     8.3    2.6    5.1
C     6.0    0.4    8.1
I    -5.4   -6.4    5.6
N    -8.5   -5.0    2.0
H     8.9   -4.5    1.4
H     9.1    3.5    2.7
H     8.9    4.5    1.4
I     8.2   -1.9    5.5
H    -2.0    9.2   -3.6
H    -8.8    3.5   -3.6
H    -4.8    8.8    1.8
P    10.2    0.0   -0.9
H     4.8   -0.8   -9.0
H    -7.9    5.7   -3.1
H     6.2   -0.7    8.1
H     5.8   -7.6   -3.6
P     5.3   -4.8   -7.3
H    -9.1    4.5    1.4
C    -8.3    4.1   -4.4
H     0.8    4.2    9.3
N    -3.8   -9.4    1.8
I    -2.8   -4.4    8.8
H     1.8   -2.6    9.8
H     4.2   -9.2    1.8
H    -9.1   -4.5    1.4
C    -3.1    9.3    3.1
H    -2.7   -0.5   -9.9
N     5.3    8.7    1.8
I     7.4   -7.2   -0.4
H    -3.5    8.9    3.9
I     9.6   -0.1   -4.0
H    -8.0    5.6    3.3
I    -2.8    4.6    8.8
H     1.6    3.7   -9.6
P     1.4   -8.7    5.6
H     0.3   -4.1   -9.6
H     9.2    3.5   -3.6
N    -3.0    9.4   -3.6
H     0.8   -4.8    9.3
C    -3.8   -0.4   -9.8
H    -3.6   -9.1    3.9
H    -4.8   -9.2    1.8
H    -2.7    0.7   10.2
I     3.0   -7.0   -7.3
N     9.6    4.0    2.0
H    -0.6    2.8  -10.2
I     8.5    6.3   -0.9
H     5.5    7.7   -4.8
H     5.6   -9.0    0.9
C    -8.3   -4.9   -4.4
C    -3.7    8.7   -4.8
I    -1.5   -7.0   -7.8
H    -4.0    0.7   -9.9
I     1.0   -0.6  -10.6
H     5.7    9.0    0.9
I    -5.3    7.1    6.1
H    10.1    3.3    1.4
I   -10.6    1.8   -0.4
H    -7.8   -5.6   -5.0
H     0.3    5.0   -9.6
H    -6.2   -2.8    8.4
I     7.5   -2.6   -7.4
N     5.2   -9.4    1.8
H     2.9    6.2    8.4
H    -9.0   -5.5    2.7
H     3.0   -3.8    9.8
I    -1.6   10.8   -0.4
H     5.6   -9.0   -2.7
I    10.7    0.1    2.3
H     9.0   -5.5    2.7
C     5.9   -8.7    3.1
H     5.6    9.0   -2.7
P     1.5    9.3    5.6
H     4.3    8.9   -4.7
N     9.6   -5.0    2.0
H     9.9   -3.4    3.3
H    -8.9   -5.5   -3.6
H    -3.3   -8.9   -5.7
P    -8.3   -0.3   -7.3
N     2.3    5.7    9.2
I     7.6    2.0   -7.8
H     1.5   -5.3   -9.6
N     5.9   -8.6   -3.6
H     4.2   -9.1   -4.7
H    10.1   -3.3   -3.1
C     0.9    4.3  -10.2
H     5.1    0.7   -9.9
I    -6.0    6.4   -6.8
C    -3.7   -9.3   -4.8
C     5.2   -0.4   -9.8
H    -4.7    8.9   -4.7
H    -3.6  -10.4    1.8
H     9.0   -4.4   -5.0
H     5.5    8.9    3.9
H    -9.0   -4.4   -5.0
H    -2.6   -8.2    7.2
H     9.1   -5.5   -3.6
H    -3.2    9.2   -5.7
H    -9.0    4.7   -5.0
C     0.8   -4.8  -10.2
H    -3.3   10.4    3.0
H     5.4   -9.1    3.9
I    -9.8    2.6    5.1
H     9.0    4.7   -5.0
H    -4.8   -9.1   -4.7
C     5.3    8.7   -4.8
H    -7.1    4.1    7.9
N    -0.1    3.3  -10.9
P     0.8    8.7   -7.3
C     9.7    4.1   -4.4
I    -9.8   -1.9    5.5
I    -9.5    6.3   -0.9
I     3.9  -10.7   -1.4
H   -11.1    0.1    3.0
H    -3.1   10.4   -3.6
H     3.0    5.2    9.8
C     6.0    9.3    3.1
N     6.7    1.0    9.3
H     6.5    2.1    9.3
I     8.2   -6.4    5.1
H   -11.0    0.2   -3.6
C    10.5   -4.1    2.7
H     3.5   -0.9  -11.1
H     6.9   -8.9    3.0
I     6.2   -4.4    8.8
H    10.1   -5.7    1.4
C     9.7   -4.9   -4.4
H    -7.1   -5.0    7.9
N     6.0    9.4   -3.6
C     5.3   -9.3   -4.8
I     6.2    4.6    8.8
H     6.3   -0.5   -9.9
H    11.1   -3.5    1.9
H     0.4    2.6  -11.5
H     7.0   -8.8   -3.6
I    -7.4   -8.9    2.3
I    -6.0   -7.0   -7.3
H     1.8    6.4    9.8
I    -0.6  -11.8   -0.9
N    -6.7   -3.3    9.2
H     5.4  -10.4    1.8
P    10.4    0.3    5.6
I    -7.8    0.6    8.9
H     1.4   -4.2  -11.0
H    -2.6   -6.9    9.3
I    -7.3    9.1    2.3
H     7.0    9.1    3.0
P     0.7   -9.3   -7.3
H    10.0    5.6    3.3
H    10.3    3.4   -5.0
I    -5.1  -10.7   -1.4
N    10.6   -4.0   -3.7
H    -2.8    8.3    8.1
C    10.6    4.9    2.7
H    -3.5  -10.4   -4.8
N    -4.4   -1.0  -11.1
H    -0.6   -6.2  -10.2
H     6.3    0.7   10.2
P    -7.9   -9.0   -0.9
H     5.7   -8.9   -5.7
P    -7.8    9.1   -0.9
N     4.6   -1.0  -11.1
H    -4.3   -2.0  -11.0
H    10.2    5.7   -3.1
H    -8.4   -3.7    7.9
H     1.4    4.8  -11.0
H     7.7    0.9    9.3
H    -6.0   -3.8    9.8
I     0.1   -2.1   12.0
I    -4.0    4.4  -10.6
P     1.8    0.7   12.0
H    -6.2    6.2    8.4
H     7.1    9.2   -3.6
H    -0.7    3.8  -11.5
H     4.7   -2.0  -11.0
C    -3.1   -8.6    8.1
I     8.3    7.1    5.5
P     9.8   -0.3   -7.3
C    -7.7   -4.3    8.5
I    -4.0   -4.6  -10.6
I    11.9    2.9   -0.9
H     5.8    9.2   -5.7
I     2.9   11.9   -0.9
H     5.8   10.4    3.0
N    -0.1   -5.7  -10.9
I    -0.8  -10.9    5.5
I     1.2   -8.4    8.9
H    -5.5   -0.9  -11.1
I     7.6    6.4   -7.4
N    10.7    5.0   -3.7
C    -7.6    4.8    8.5
I    -4.4   -1.0   11.5
H    -1.4   -8.1    9.3
H    -7.2   -2.6    9.8
H   -12.4    0.0    0.9
H    -4.1   -8.4    8.2
H     1.1   12.3    1.4
H    -2.5    9.8    7.2
I     4.6   -1.0   11.5
N    -2.4   -8.0    9.3
H     5.9   10.4   -3.6
C   -12.1    0.3    3.1
H    11.2   -3.4   -4.5
H    11.3    4.4    3.3
H    11.1    5.5    1.9
I     5.0    4.4  -10.6
H    11.3   -4.5   -3.1
N   -12.0    0.4   -3.6
H    11.2   -4.7    3.3
I     5.0   -4.6  -10.6
H    -6.0    5.2    9.8
H    11.3    4.5   -3.1
H    -4.1   -0.6  -11.9
H    -8.3    5.3    7.9
