         400
 sphere cut out from bulk 
P    -0.5    1.3    0.0
I    -1.9   -1.6    0.3
I     1.7   -0.1   -2.0
H     0.8   -2.6    0.8
H     1.7   -2.3   -0.5
I     1.4    0.4    2.5
N     1.6   -2.9    0.2
H     2.4   -2.9    0.8
H    -2.0   -0.8    3.2
I    -2.4    2.1   -2.4
I    -2.5    2.6    2.1
I     1.1    4.1   -0.3
H     4.0    1.0   -1.2
H     0.4   -4.3   -0.8
C     1.3   -4.3   -0.2
H     0.7    3.3    3.1
H    -2.1    0.1   -4.0
H     4.0    1.9    1.1
C    -2.0   -1.3    4.2
H    -0.9   -1.5    4.5
H     4.9    0.4    1.0
N     4.8    1.5   -0.8
C     4.9    1.4    0.7
H     1.2   -5.0    0.6
H     2.2   -4.6   -0.9
H     1.2    4.2   -2.9
H    -2.5   -2.2    4.1
H    -1.1   -0.5   -5.2
N    -2.1   -0.3   -5.0
H    -2.4   -2.3   -4.3
C     0.7    3.7    4.1
H    -5.1    1.9    1.0
H    -5.3    1.0   -1.3
H     4.9    2.5   -1.2
P    -4.0   -3.9   -0.0
P     3.1   -1.2    4.6
I     1.2   -3.7    4.2
H    -2.1    0.5    5.4
P     3.2   -1.3   -4.6
I     4.8   -2.5    2.0
H     1.1    3.0    4.8
H    -0.4    3.9    4.3
N    -2.6   -0.4    5.2
H     1.2    2.9   -5.0
H     5.6    1.0   -1.3
C    -2.9   -1.6   -5.0
H    -2.5    5.4    0.6
H    -1.5    5.8   -0.9
H    -3.6   -0.2    5.0
I     1.7   -4.2   -4.2
N     1.2    4.7   -3.8
H    -6.1    0.4    1.0
H    -2.5    0.3   -5.7
H     5.8    1.9    1.0
C    -6.1    1.4    0.7
H    -3.9   -1.4   -4.8
I    -2.2   -5.6   -2.0
N    -6.1    1.5   -0.8
H     0.2    4.9   -4.1
C     1.8    3.8   -4.9
H     2.8    3.6   -4.6
I    -5.5   -2.4   -2.5
I     5.5   -2.4   -2.5
C    -2.4    6.1   -0.2
I    -2.7   -5.4    2.5
N     1.4    5.0    4.1
H     2.4    4.8    3.8
I     1.0   -0.3   -6.6
H     1.1    5.7    3.4
H    -6.1    2.5   -1.2
H    -2.6   -0.9    6.2
H     1.7    5.6   -3.7
H    -2.8   -2.0   -6.0
H    -3.3    6.1   -0.8
I    -6.2   -2.5    2.0
I     4.9    1.4   -4.9
I     1.3   -0.2    7.0
H    -7.0    1.0   -1.2
I     4.5    5.0    2.5
P    -4.1    3.9   -4.5
I     5.3    1.1    4.9
H    -6.9    1.9    1.1
I     5.1    4.9   -2.0
P     3.3    6.6   -0.0
P    -4.2    4.0    4.5
I    -1.9    2.9    6.6
H     1.8    4.3   -5.8
H     4.8   -4.8    3.4
H     1.4    5.5    5.0
I    -5.7    1.1    4.9
H    -1.3    7.5    0.8
N    -2.1    7.5    0.2
I    -2.0    6.2   -4.2
P    -0.5   -6.4    4.5
H     3.9   -5.5   -4.1
I    -2.4    2.6   -7.0
P    -0.4   -6.5   -4.5
I     4.8   -6.3   -0.3
I    -5.9    4.9   -2.0
I    -6.1    1.4   -4.9
P     7.0   -3.9   -0.0
H     5.4   -4.9   -3.7
I     1.2   -7.8    2.1
I     1.1    7.9    2.0
H    -5.6   -4.9   -3.7
I    -2.5    6.7    4.2
H    -4.8   -5.6    3.8
H    -2.9    7.8    0.8
H     4.9   -6.2   -2.9
H    -2.4   -8.0   -1.2
H     1.1   -2.6    7.9
H    -2.0    8.1   -0.5
N     4.9   -5.8   -3.8
H     3.3   -6.5    4.3
I    -2.1   -4.9   -6.6
N     5.1   -5.4    4.1
I    -6.4    5.0    2.5
H    -6.2   -4.8    3.4
I     1.8    8.0   -2.5
H     7.1   -1.4   -4.8
H    -1.4   -8.5    1.0
H     0.5   -3.4   -8.0
H     5.1   -5.0    5.0
I     4.8   -3.0    6.6
I     1.3   -8.3   -2.4
H     0.2   -4.1    7.9
I    -6.2   -6.3   -0.3
I     4.9   -2.7   -7.0
H     4.4   -7.1    3.1
H     7.4   -0.2    5.0
N    -5.8   -5.4    4.1
C     4.4   -6.7    4.1
I    -2.0   -5.2    7.1
H     1.9   -4.1    7.8
H    -8.5   -2.9    0.8
P     6.8    4.0    4.5
N     1.1   -3.6    8.2
H     2.3   -3.4   -8.1
P    -7.7   -1.3   -4.6
P     6.9    3.9   -4.5
I     8.5    2.6    2.1
H    -3.2   -8.5    1.1
H     6.1   -5.6    3.8
P    -0.3    1.2   -9.1
P    -7.9   -1.2    4.6
I     8.6    2.1   -2.4
H    -5.9   -5.0    5.0
P    -0.5    1.5    9.1
H    -6.1   -6.2   -2.9
H     3.9    1.0    8.2
I    -2.7   -1.0    8.8
I     9.1   -1.6    0.3
N    -6.1   -5.8   -3.8
N    -2.4   -8.9   -0.8
C    -2.4   -9.0    0.7
H    -4.5   -6.8   -4.6
C     1.4   -3.9   -8.4
I    -9.2   -0.1   -2.0
I    -6.1   -3.0    6.6
H     1.4   -4.9   -8.1
I    -6.1   -2.7   -7.0
H     9.0   -0.8    3.2
H    -9.3   -2.3   -0.5
I     1.8    3.5   -8.8
P     3.2   -9.1    0.0
H     8.5   -2.2    4.1
H    -1.6   -9.4   -1.3
C     8.1   -1.6   -5.0
H     4.5    2.5   -8.2
H     8.9    0.1   -4.0
I    -2.5   -1.2   -9.4
H    -5.3    0.7    8.2
H     5.0    0.1   -8.4
H    -4.8    2.2   -8.2
H     8.5   -2.3   -4.3
H     7.7    6.1   -0.8
H    -7.1   -5.5   -4.1
N    -9.4   -2.9    0.2
I    -9.6    0.4    2.5
C    -5.5   -6.6   -4.9
C     5.5   -6.6   -4.9
N     8.4   -0.4    5.2
I     1.1    7.4    6.6
H    -8.8   -4.6   -0.9
H     5.7    0.7    8.2
H    -8.2    3.6   -4.6
H    -3.3   -9.4   -1.2
H     4.8   -7.4    4.8
C     9.0   -1.3    4.2
H     5.5   -6.1   -5.8
H    -2.3    5.5   -8.1
H    -5.5   -6.1   -5.8
I     5.2    5.5   -6.6
H     8.5    5.4    0.6
C     4.9    1.0    8.8
P    -7.7    6.6   -0.0
H    -6.5   -7.1    3.1
I     1.8   -7.5    6.6
I     8.2   -5.4    2.5
H    -1.8    6.3    7.8
P    -0.5    9.1   -4.6
N     8.9   -0.3   -5.0
H     8.5    0.3   -5.7
I     1.6    3.8    9.4
C    -6.6   -6.7    4.1
I     5.3    5.2    7.1
H     4.9   -7.5   -5.0
P    -0.6    9.2    4.6
H     4.8    8.2    4.1
H     8.2   -2.0   -6.0
H    -6.0    0.1   -8.4
H    -2.4  -10.0    1.0
I     5.4    8.9    0.3
H     4.9    8.1   -4.3
I    -5.8    5.5   -6.6
H     8.9    0.5    5.4
H     5.2    3.0    8.5
H     8.4   -0.9    6.2
C     1.2   -3.7    9.7
I     1.2    7.7   -7.0
I    -5.6    8.9    0.3
H     6.5   -6.8   -4.6
I    -5.7    5.2    7.1
N     5.3    2.2   -8.8
H    -8.5    4.8    3.8
I    -2.4   -9.0   -4.9
C     8.6    6.1   -0.2
H     6.2    2.2   -8.2
P    10.5    1.3    0.0
H   -10.2   -2.6    0.8
I     1.3   -7.8   -7.0
I     8.8   -5.6   -2.0
C    -9.7   -4.3   -0.2
H     0.3   -3.2   10.1
C     5.1    0.8   -9.3
I    -2.0   -9.3    4.9
P    -4.0   -4.0   -9.0
H    -3.5    6.3    7.9
H     1.3   -2.9  -10.2
N    -5.7    2.2   -8.8
N     1.3   -3.8   -9.9
I    -2.0   10.3   -2.0
P    -4.3   -3.8    9.1
H    -5.8    3.0    8.5
I    -9.9    4.1   -0.3
H     2.1   -3.2   10.0
H     4.1    0.8   -9.9
H     3.4    9.0   -4.8
H    -6.2   -7.4    4.8
H    -6.5    2.5   -8.2
C    -6.1    1.0    8.8
H    -1.4    7.0   -8.1
H     4.8    0.3    9.7
H    -6.1   -7.5   -5.0
N     5.1    2.4    9.3
H    -7.0    1.0    8.2
C    -2.3    6.5   -8.4
H     1.2   10.8    1.0
H    -7.6   -6.5    4.3
N    -2.6    6.8    8.2
H    -9.8   -5.0    0.6
H    -4.6    8.9    4.5
I    -9.3   -4.2   -4.2
H    -6.1    8.1   -4.3
C    -5.9    0.8   -9.3
C     4.4    8.8   -5.0
H    -6.2    8.2    4.1
C    -9.2    3.8   -4.9
H    -9.8    4.2   -2.9
H     9.5    5.8   -0.9
H     4.3    2.7    9.9
H     0.4   -4.3  -10.2
H    10.1   -1.5    4.5
H    -3.2    7.0   -8.0
H    -5.1    0.5   -9.9
H     1.2   -4.7   10.0
H     1.6  -10.3   -4.0
H   -10.2    3.3    3.1
H     9.9   -0.5   -5.2
I     1.5   -0.5  -11.1
H     8.1    7.8    0.8
H     4.5    8.4   -6.0
N    -5.9    2.4    9.3
I    -9.8   -3.7    4.2
H    -9.8    2.9   -5.0
H    -5.0    2.4    9.9
C     5.3    9.1    4.2
I    -2.3   10.9    2.5
I     8.5    2.6   -7.0
H    -2.6    7.8    7.9
H     5.4    2.8   -9.6
H    -9.9    3.0    4.8
H     2.1   -4.3  -10.3
H     1.6  -10.0    5.4
H    -9.3    5.6   -3.7
H    -2.1   -7.4    8.5
H   -10.6   -4.3   -0.8
H    -5.6    2.8   -9.6
I     5.1  -10.0    2.5
H     5.3    9.7    3.2
C    -5.6    9.1    4.2
H     0.3   11.4   -1.2
N    -9.5    5.0    4.1
N    -9.8    4.7   -3.8
H    -6.2    0.3    9.7
H     7.7   -8.5    1.1
I     9.0    2.9    6.6
P     3.2    6.4   -9.0
I     8.4    6.7    4.2
H     5.9    0.5   -9.9
P   -11.5    1.3    0.0
N     8.9    7.5    0.2
I     0.8   -0.1   11.6
H     1.2  -10.1   -5.7
H     1.9   11.4   -1.3
P     3.0    6.6    9.1
H    -5.7    9.7    3.2
H    -1.1   -8.2   -8.2
C   -10.3    3.7    4.1
H     0.1  -10.6    5.0
I     9.0    6.2   -4.2
H    -9.2    4.3   -5.8
H     8.6   -8.0   -1.2
H     1.7  -11.2    3.2
I    -2.6    2.8   11.1
H    -2.8   -7.9   -8.2
H     6.0    2.4    9.9
H    -2.5    5.7   10.0
H     6.4    8.9    4.5
I    -5.9  -10.0    2.5
C     1.2   11.8    0.7
H    -9.9    5.7    3.4
P     6.7   -3.8    9.1
I    -9.7   -0.2    7.0
I   -10.0   -0.3   -6.6
N     1.6  -10.7   -5.0
N     1.1   11.9   -0.8
I     5.4  -10.5   -2.0
I    -1.7    2.7  -11.6
H     3.7   10.2    5.0
P    -7.8   -9.1    0.0
I    -5.5  -10.5   -2.0
H    -6.8    0.8   -9.9
H    11.8   -2.6    0.8
C    -6.6    8.8   -5.0
I     8.9   -4.9   -6.6
P     6.9   -4.0   -9.0
C    -2.5    6.7    9.7
H    -1.6    6.1  -10.3
N     1.1  -10.9    5.2
I     8.3   -1.0    8.8
H     8.9    8.1   -0.5
H    -9.6    5.5    5.0
I     1.8  -12.0    0.3
H    10.6    3.9    4.3
N    -2.4    6.6   -9.9
H     7.7   -9.4   -1.2
H    -6.5    8.4   -6.0
N     4.7   10.0    5.2
H    11.4   -4.3   -0.8
H    -4.8    9.9   -5.2
H    -6.7    2.7    9.9
N    -2.0   -8.3   -8.8
H    -2.4   -1.1  -12.0
H     4.7    9.5    6.2
H     9.7    7.5    0.8
I    -2.7   10.1   -6.6
H    -8.7   -3.4   -8.1
H     2.6  -10.9   -5.2
I     4.7   -2.5   11.2
N     5.2   10.1   -5.0
H    -3.3    6.1  -10.2
I    -5.4   -6.9   -8.8
H    -1.9   -7.6   -9.6
N     8.5   -8.9   -0.8
H     0.3   12.4    1.1
I    -9.2    8.0   -2.5
H     5.2   10.6   -4.0
I    -1.8   -5.4  -11.1
I     5.5   -6.9   -8.8
P    -4.2   11.7    0.0
H    -1.6    7.2   10.0
C     8.6   -9.0    0.7
N    -2.2   -8.0    9.3
I     9.0   -5.2    7.1
H     2.1   12.3    1.0
H   -10.8    4.9   -4.1
H    11.7    3.3    3.1
C     1.7  -11.7    4.2
I    -2.4   10.2    7.0
H     7.5    6.3    7.9
H    -3.0   -1.8   12.1
I    -2.3   -4.7   11.5
N    -5.8   10.1   -5.0
I     1.6   11.6    4.9
I    12.4    0.4    2.5
H    -9.1   -4.1    7.8
I     5.3   -6.7    9.4
I    -9.8   -7.8    2.1
I     8.5   -1.2   -9.4
