         400
 sphere cut out from bulk 
P    -0.2    0.4    0.5
I     1.8   -2.1    0.5
I    -2.2   -2.0   -0.4
I    -1.2    2.6   -1.4
I     2.3    2.3    0.9
I    -1.4    1.2    3.2
H     3.5   -2.0   -1.4
P    -0.3   -4.4    0.6
H     3.3   -0.3   -3.1
P     1.3    4.4   -1.1
H     4.5    0.1   -1.8
H    -0.7   -2.5    4.2
C     4.3   -0.5   -2.6
H    -0.5   -0.2    5.0
N     4.2   -1.9   -2.1
H    -4.3   -2.2   -1.7
H     1.0   -2.1    4.7
H    -5.0    0.1   -1.8
H    -3.6    2.5    3.0
I     2.9    3.1   -3.5
H    -4.4   -0.4   -3.4
C    -0.0   -2.3    5.0
H     4.0   -2.6   -2.9
H     4.3    2.7    2.3
H    -2.7    4.0   -2.8
H    -3.5    4.3    1.3
N    -0.4   -1.0    5.7
H     5.1   -2.2   -1.7
C    -5.2   -0.5   -2.6
N    -5.2   -1.9   -2.1
H    -0.8    4.2    4.3
I    -1.9   -4.8    3.2
H     5.1   -0.4   -3.4
N    -4.4    3.2    2.9
H    -5.1    2.7    2.3
I    -0.3    6.2    1.2
H    -1.4   -1.2    6.0
C    -4.0    4.5    2.3
H    -5.9   -2.0   -1.4
H    -0.1   -3.1    5.8
H     0.2   -0.8    6.5
H    -3.2    4.9    3.0
N    -3.4    4.5   -3.4
H     0.8    4.1    5.1
N     5.0    3.2    2.9
I    -0.5   -6.4   -1.7
H    -5.5   -2.6   -2.9
C    -0.0    4.8    4.8
H    -3.0    4.2   -4.4
H    -4.3    4.1   -3.4
H     4.6    3.3    3.8
H     1.6    3.8   -5.5
H    -6.1   -0.3   -3.1
H    -4.8    3.3    3.8
I     3.0   -3.9   -5.0
H     5.8    2.5    3.0
H     0.3    5.6    4.2
I     2.0   -6.5    1.6
I    -3.5   -1.0   -6.1
H     4.6    5.1    2.3
H     5.1    4.1   -3.4
H     1.0   -5.3   -5.0
H    -4.8    5.1    2.3
H    -0.1   -6.2   -4.1
H     5.9    4.3    1.3
C     5.5    4.5    2.3
I     3.3    3.0    6.0
I     0.4    6.8   -3.1
I    -7.1    2.3    0.9
H     0.3    3.8   -6.5
I     7.3   -2.0   -0.4
I     3.6    6.6   -0.4
H    -3.7    6.2   -2.3
C    -3.4    6.0   -3.3
H    -2.4    6.4   -3.5
N     1.3    4.1   -6.4
I    -2.2    3.5   -6.6
H     3.7   -6.0    3.3
I    -3.7   -1.5    6.8
H    -4.2   -5.5    3.8
N     0.3   -6.1   -5.1
I    -7.7   -2.1    0.5
I    -6.5    3.1   -3.5
N    -0.6    5.3    6.1
H    -0.5   -5.7   -5.7
H    -0.9    4.6    6.7
H     1.8    3.6   -7.1
H     6.7    4.0   -2.8
N     6.1    4.5   -3.4
H     0.7    6.0   -5.8
H    -1.4    5.9    5.8
H     5.2   -5.5    3.8
H     6.2    4.9    3.0
I     6.0   -1.0   -6.1
N     4.4   -6.1    4.1
H    -4.1    6.4   -4.0
P     1.0    8.5   -0.4
C     1.4    5.6   -6.5
H     4.0   -5.8    5.0
I     8.2    2.6   -1.4
I     8.0    1.2    3.2
I     1.9   -1.1    8.5
H     5.8    6.2   -2.3
P     1.1   -8.8   -0.4
H     6.4    4.2   -4.4
I    -5.9    6.6   -0.4
H     0.1    5.9    6.6
H     2.5    5.8   -6.2
N    -5.0   -6.1    4.1
H    -5.7   -6.0    3.3
I     5.7   -1.5    6.8
I    -6.4   -3.9   -5.0
P    -3.5    1.0   -8.3
C     6.0    6.0   -3.3
I    -6.2    3.0    6.0
H     5.3    6.4   -4.0
H     1.7   -7.6   -4.9
P     9.2    0.4    0.5
C     0.8   -7.3   -5.6
I    -2.5    3.2    8.3
P    -8.1    4.4   -1.1
H    -4.1   -7.8    3.1
H    -5.4   -5.8    5.0
I    -3.8    6.6    5.5
P     4.4    1.1    8.3
I    -2.3   -5.5   -7.3
I     7.5   -4.8    3.2
P    -4.7   -3.6   -7.5
P     4.7   -3.6   -7.5
H     1.2    5.9   -7.5
C    -4.5   -7.5    4.1
P    -9.7    0.4    0.5
P    -5.0    1.1    8.3
H    -3.7   -7.6    4.9
H     1.2   -7.1   -6.6
H     0.1   -8.1   -5.6
I     3.3   -5.6    7.4
H    -8.4   -2.1    4.7
C     4.9   -7.5    4.1
H     5.3   -7.8    3.1
H    -0.5    1.7    9.8
H     8.8   -2.5    4.2
I    -7.4   -6.5    1.6
I     3.6    3.1   -8.9
H     8.0   -1.2    6.0
H     7.0    6.4   -3.5
P     9.1   -4.4    0.6
H     4.1   -8.2    4.4
H     8.9   -0.2    5.0
H    -7.8    3.8   -5.5
H     0.2   -0.5   10.2
I     5.6    6.6    5.5
P     5.9    1.0   -8.3
I     7.2    3.5   -6.6
P     4.2   -3.1    9.0
H     8.7    4.2    4.3
P     4.3    5.4    8.0
H     5.7   -7.6    4.9
H    -5.3   -8.2    4.4
N     9.0   -1.0    5.7
P    -9.8   -4.4    0.6
H    -0.0    9.2   -5.6
H    -8.6    4.1    5.1
P    -5.2   -3.1    9.0
H     4.0    9.1    4.4
H    -4.2    9.5    3.1
I     0.5  -10.5   -3.1
C     9.4   -2.3    5.0
C    -9.4   -2.3    5.0
I     1.6    7.2    8.1
C    -0.3    1.4   10.9
N    -0.4   -0.0   11.0
H     1.6    9.7   -4.9
P    -5.2    5.4    8.0
H    -1.4   -0.3   10.9
I    -0.7   10.8   -1.7
P    -3.3    5.3   -9.1
I    -4.5   -1.5  -10.0
I     1.9   10.7    1.6
H    -7.0    5.8   -6.2
H    -7.6    3.6   -7.1
I   -10.7    2.6   -1.4
I    -2.0    2.7  -10.5
I     9.1    6.2    1.2
I    -5.9    3.1   -8.9
I     8.9   -6.4   -1.7
I    -6.2   -5.6    7.4
N    -8.2    4.1   -6.4
I    -0.2  -11.1    1.2
H   -10.0   -0.2    5.0
I     3.1    3.2   10.2
H    -8.5   -5.3   -5.0
H   -10.1   -2.5    4.2
I     5.0   -1.5  -10.0
I     6.9    3.2    8.3
H     0.8    1.7   11.1
I    -4.7    7.4   -7.1
I     3.7  -10.7   -0.4
I     4.8    7.4   -7.1
H     5.2    9.5    3.1
H    -9.3   -0.8    6.5
I   -10.8    1.2    3.2
I    11.2   -2.1    0.5
I    -7.6   -1.1    8.5
H     9.4   -3.1    5.8
N    -9.9   -1.0    5.7
C     0.7   10.0   -5.6
I    -3.9   -0.6   10.8
H    -5.4    9.1    4.4
H    -9.1    5.6    4.2
H     1.9    3.4  -10.9
H     8.0    5.9    5.8
H    -9.5   -3.1    5.8
I     3.4   -6.0   -9.3
H    -3.8    9.7    4.9
C    -4.6    9.8    4.1
C     9.4    4.8    4.8
I    -9.8    6.2    1.2
C    -9.4    4.8    4.8
H     9.6   -0.8    6.5
I     7.1   -5.5   -7.3
H    10.5   -2.1    4.7
C     4.8    9.8    4.1
P    10.8    4.4   -1.1
I    -0.9    7.4   -9.0
H     0.3    3.0  -11.3
H    -2.3  -10.9   -3.5
C    -8.0    5.6   -6.5
H     8.5    4.6    6.7
I    -9.1    6.8   -3.1
H     1.6    1.1  -11.6
H    -1.0    1.9   11.6
I   -11.6   -2.0   -0.4
H   -10.2    4.2    4.3
H    -9.2    3.8   -6.5
H    -0.2   11.1   -4.1
H    -3.6  -11.1   -2.3
H    -0.0   -0.4   11.9
H     9.3   -6.2   -4.1
H    -7.8   -7.6   -4.9
N     8.8    5.3    6.1
P    -8.4    8.5   -0.4
I   -10.0   -6.4   -1.7
I    11.8    2.3    0.9
H     8.9   -5.7   -5.7
H     9.8    5.6    4.2
P    -8.3   -8.8   -0.4
H    -8.7    6.0   -5.8
H    -9.6   -6.2   -4.1
N    -9.2   -6.1   -5.1
I     5.5   -0.6   10.8
I    -5.7  -10.7   -0.4
N     1.2    3.1  -11.7
P     6.1    5.3   -9.1
H    10.3    4.1    5.1
H     1.1   10.2   -6.6
C    -3.3  -11.3   -3.3
H     5.6    9.7    4.9
H     9.7    3.8   -6.5
H     3.6   11.3    3.3
H    -4.0  -10.9   -4.0
I     9.8    6.8   -3.1
N     0.1   11.2   -5.1
H    -0.6    6.0   10.8
H     0.4  -11.7    4.2
I    -6.4    3.2   10.2
H   -10.9   -1.2    6.0
N     9.7   -6.1   -5.1
I    -6.0   -6.0   -9.3
P    -3.4   -7.7   -9.3
C     1.7    1.9  -12.3
C    -8.6   -7.3   -5.6
I    -3.7  -10.7    5.5
H    -8.2    5.9   -7.5
N     4.3   11.2    4.1
H     0.8  -11.3   -5.8
I   -11.3   -4.8    3.2
H    -8.2   -7.1   -6.6
H    10.4   -5.3   -5.0
H     5.9  -11.1   -2.3
H     5.4  -10.9   -4.0
H   -10.0   -5.7   -5.7
H    -1.3  -11.4    5.8
N   -10.0    5.3    6.1
P     3.1   -7.7    9.9
H    -0.6   11.6   -5.7
H    -9.4    5.9    6.6
H    -1.7    5.1   11.7
H    11.1    3.8   -5.5
P    -0.4   12.9    0.6
N    -5.1   11.2    4.1
H     9.5    5.9    6.6
H     1.2    3.9  -12.3
P     1.4  -12.9   -1.1
H    -3.7   -1.7  -12.4
I    -4.6   -9.9   -7.1
H     0.9   12.0   -5.0
I    -2.0   12.5    3.2
I     1.8  -10.1    8.1
H     1.9   -7.2  -10.8
H     3.9   11.5    5.0
H    -2.0   -3.4  -12.5
H    12.7   -0.3   -3.1
H     2.7    2.0  -12.7
H   -12.2    4.0   -2.8
H    -5.9   11.3    3.3
H    -3.1  -12.4    3.0
N    10.7    4.1   -6.4
I     4.3   -5.1   11.3
I     4.9   -9.9   -7.1
H     0.2  -11.4    6.6
H    -4.3   11.8    3.8
H    12.9   -2.0   -1.4
H    10.2    6.0   -5.8
H   -10.4    4.6    6.7
C    -1.0    5.8   11.8
I    12.3    3.1   -3.5
I     7.4    2.7  -10.5
I    -4.1    7.6   10.0
H    -4.7  -12.2    2.3
I    -7.6   10.7    1.6
H     4.7  -12.2    2.3
I    11.4   -6.5    1.6
C     6.1  -11.3   -3.3
H     2.6  -11.5   -6.2
H     1.0    1.7  -13.2
I     5.8  -10.7    5.5
I    -7.8    7.2    8.1
C     0.1  -12.5    4.8
H     8.9    1.7    9.8
H    -7.9    9.7   -4.9
N    -0.5  -12.0    6.1
I    -5.1   -5.1   11.3
H     5.1   11.8    3.8
I    -0.7   -9.9   -9.0
C     1.5  -11.7   -6.5
H    -3.4  -13.0    1.3
P    10.5    8.5   -0.4
H     7.1  -10.9   -3.5
H     8.0   -0.3   10.9
P     6.1   -7.7   -9.3
H    -9.4   -8.1   -5.6
C    -3.8  -12.8    2.3
H   -13.0    2.5    3.0
H    -0.1    5.5   12.4
H     0.4   -7.2  -11.5
N    -3.2  -12.8   -3.4
H    -7.6    3.4  -10.9
H    -5.5   11.5    5.0
I     5.3    7.6   10.0
I    -2.0   -6.6  -11.8
H     9.5   -8.1   -5.6
H   -10.9    5.9    5.8
H     0.9   -8.6  -10.7
H     5.7   -1.7  -12.4
H     1.3  -11.4   -7.5
H   -13.0    4.3    1.3
P    10.6   -8.8   -0.4
H    -0.7  -13.1    4.3
P    -3.5    9.5   -9.3
H    -4.7    0.1   13.0
H     0.7    8.7  -10.7
N     1.2   -7.8  -11.3
C    10.3   -7.3   -5.6
H     4.7    0.1   13.0
H    -2.6  -13.3   -2.8
H    -9.3   -0.5   10.2
C    10.9    5.6   -6.5
H    11.3    3.6   -7.1
H    -2.5   -1.3  -13.5
N    -3.3   -2.0  -13.3
I   -11.7    3.5   -6.6
H   -12.4    4.2   -4.4
H   -12.6    4.9    3.0
H   -11.8    6.4   -3.5
N    13.6   -1.9   -2.1
I    12.4   -3.9   -5.0
C    13.7   -0.5   -2.6
C    -2.8   -3.4  -13.2
H    13.4   -2.6   -2.9
I     1.2   -1.1   13.9
N   -12.8    4.5   -3.4
H    13.9    0.1   -1.8
H     3.6    2.2   13.4
H    -7.8    1.1  -11.6
H   -13.7   -2.2   -1.7
H     9.6   -0.5   10.2
H    -2.3    7.4   11.7
I     8.8   10.8   -1.7
P    -6.4   -7.7    9.9
I    -2.4   11.7   -7.3
H    -3.6   -4.0  -13.0
P     2.9    9.6    9.9
H    -9.9    1.7    9.8
H    -2.9  -13.1   -4.4
I    -4.5    7.1  -11.3
I    -9.0  -10.5   -3.1
H     0.9  -13.2    5.1
I    11.3   -1.1    8.5
C     5.6  -12.8    2.3
