         400
 sphere cut out from bulk 
H    -0.2    0.8   -1.1
H    -1.2   -0.6   -1.1
N    -1.2    0.4   -1.3
H    -2.1    1.0    0.4
C    -2.2    1.2   -0.6
I     2.2    1.2   -0.8
H    -1.3    0.4   -2.4
I     0.2   -0.7    2.8
H    -2.1    2.2   -0.9
H     1.7   -2.7   -0.8
I    -0.9   -3.1   -0.8
H    -3.2    0.8   -0.9
P     2.7    1.3    2.4
H     3.2   -2.3    0.0
N     2.8   -2.8   -0.8
H     3.2   -2.3   -1.7
P    -1.6   -3.3    2.4
I     0.4   -0.9   -4.4
I    -4.2   -1.4    1.9
I     0.9    3.9    2.9
H    -2.2    1.9    4.2
P     2.9    1.2   -4.0
H     2.7    4.4    0.1
I     4.6   -1.4    1.9
I    -3.6    3.2    2.1
C     3.1   -4.2   -0.8
H     2.7   -4.6    0.1
H     2.7    4.4   -1.7
I    -4.0   -1.4   -3.5
P    -1.6   -3.4   -4.0
H    -1.3    0.1    5.5
H     2.7   -4.7   -1.7
H    -0.2    1.5    5.5
I     0.8    3.5   -4.4
H     5.6    0.8   -0.9
C     3.1    4.9   -0.8
H     2.6   -3.2    4.2
N    -2.2    2.0    5.2
I    -3.6    3.2   -3.6
C    -1.1    1.1    5.8
I     1.0   -5.2    2.9
I    -0.9    5.9   -0.8
H     2.9   -1.8    5.0
H     4.2   -4.3   -0.8
I     4.8   -1.4   -3.5
H    -5.7   -2.3    0.0
H    -1.0    1.3   -5.9
H    -5.7   -2.3   -1.7
H    -4.6   -4.3   -0.8
H     4.2    4.8   -0.8
P    -1.6    5.8    2.4
I     5.3    3.2    2.1
N     3.0   -2.8    5.0
H    -3.2    1.6    5.5
I     3.3    0.9    5.6
H    -2.1    2.9    5.5
H     1.7    6.4   -0.8
N    -6.1   -2.8   -0.8
H    -4.6    4.8   -0.8
P    -6.1    1.3    2.4
C     6.6    1.2   -0.6
I    -6.6    1.2   -0.8
H     6.8    1.0    0.4
N     2.7    6.3   -0.8
H     3.1   -2.7   -5.7
I    -2.3   -3.5    5.6
P    -1.6    5.6   -4.0
H    -1.2    1.2    6.9
I     0.8   -5.5   -4.4
H     6.7    2.2   -0.9
H     4.0   -3.0    5.0
I     5.2    3.2   -3.6
C    -5.7   -4.2   -0.8
H     1.3   -3.1    6.3
I    -3.5   -5.9    2.1
C    -0.9    1.3   -7.0
H    -2.1   -6.8   -0.9
P    -6.0    1.2   -4.0
H     1.5   -3.0   -6.6
H    -1.1    0.2   -7.4
H     3.1    6.8    0.0
C     2.4   -3.4    6.3
H     0.0    1.6   -7.3
C    -5.7    4.9   -0.8
H    -4.8   -3.0    5.0
H    -6.2    4.4    0.1
H     2.5    5.8    4.2
H    -7.1   -2.7   -0.8
H     3.1    6.8   -1.7
H    -6.1   -4.6    0.1
I    -3.6   -5.9   -3.6
H    -6.1    4.4   -1.7
H     7.6   -0.6   -1.1
C     2.6   -3.2   -6.6
N     7.7    0.4   -1.3
H    -6.1   -4.7   -1.7
I    -5.6    0.9    5.6
H     7.6    0.4   -2.4
H    -5.9   -1.8    5.0
H     5.7    1.6    5.5
I     3.5    1.0   -7.2
H     6.7    1.9    4.2
H     2.6   -4.4    6.3
H    -3.0    1.7   -7.4
N    -2.0    2.1   -7.6
I     2.3   -7.8   -0.8
I     5.3   -5.9    2.1
N    -5.8   -2.8    5.0
H    -1.9    3.1   -7.3
H    -6.3   -3.2    4.2
H     2.9   -2.9    7.1
H     2.5    4.6    6.3
C    -2.2   -7.9   -0.6
I    -2.4    5.5    5.6
I    -2.1   -3.4   -7.2
H    -2.0   -8.0    0.4
P     7.2   -3.3    2.4
H     2.8   -4.3   -6.5
H    -0.2   -8.3   -1.1
H    -2.1   -6.1    5.5
H    -2.1   -7.1    4.2
H     2.7    4.8   -6.5
I     0.2   -1.1    8.5
H    -5.8   -2.7   -5.7
N     3.0    6.2    5.0
I     7.9   -3.1   -0.8
H     3.1   -1.6   -7.8
P     2.7   -7.8    2.4
H    -1.2    8.4   -1.1
N     6.6    2.0    5.2
I     5.3   -5.9   -3.6
H     1.3    5.9    6.3
H     8.6    0.8   -1.1
C     2.4    5.7    6.3
N    -6.1    6.3   -0.8
I     0.2    8.4    2.8
H     4.0    6.1    5.0
N    -1.1   -8.7   -1.3
N     3.2   -2.7   -7.8
H    -5.7    6.8    0.0
H    -3.2   -8.3   -0.9
P     7.3   -3.4   -4.0
I    -4.2    7.7    1.9
H    -5.7    6.8   -1.7
H    -1.2   -8.6   -2.4
H     3.0    6.3   -5.7
I    -5.3    1.0   -7.2
H     1.5    6.0   -6.6
N    -2.2   -7.1    5.2
I    -8.6   -0.7    2.8
I     0.6    3.4    8.4
H    -2.0    2.1   -8.7
H    -9.0    0.8   -1.1
H     6.7    2.9    5.5
C     2.6    5.8   -6.6
I     4.6    7.7    1.9
I     0.4    8.1   -4.4
H    -4.8    6.1    5.0
P     2.7    1.0    8.8
I     6.5   -3.5    5.6
H     2.9    7.3    5.0
I    -7.9    3.9    2.9
P     2.9   -7.9   -4.0
H    -0.1   -7.5    5.5
H     4.2   -2.9   -7.8
H     7.6    0.1    5.5
I    -4.1    7.7   -3.5
I    -2.2    5.7   -7.2
I     9.0   -0.7    2.8
I    -8.4   -0.9   -4.4
H    -4.6   -2.9   -7.8
H    -6.3    5.8    4.2
P     7.2    5.8    2.4
H     5.9    1.7   -7.4
C    -6.4   -3.4    6.3
H     2.8   -3.1   -8.6
C    -6.2   -3.2   -6.6
N    -1.2    9.4   -1.3
H    -7.1    6.4   -0.8
H     6.7   -6.8   -0.9
H    -1.9   -6.0   -7.3
P    -1.8   -3.6    8.8
I     4.8    7.7   -3.5
C     7.7    1.1    5.8
H    -6.0   -2.9    7.1
H    -3.1   -7.4    5.5
H    -1.1   -9.7   -1.1
H    -1.0   -7.7   -5.9
I    -8.1    3.5   -4.4
H    -5.7   -1.6   -7.8
H     2.8    6.2    7.1
I    -7.9   -5.2    2.9
H    -0.2    9.8   -1.1
H    -1.3    9.5   -2.4
I     7.9    5.9   -0.8
H    -6.1   -4.3   -6.5
C    -1.1   -7.9    5.8
H     7.8    1.3   -5.9
H    -6.3   -4.4    6.3
N    -5.9    6.2    5.0
N    -5.6   -2.7   -7.8
P     7.2    5.6   -4.0
H    -6.3    4.6    6.3
I     0.4   -0.6  -10.0
N   -10.0    0.4   -1.3
H   -10.0   -0.6   -1.1
H     5.7   -8.3   -0.9
H    -6.1    4.8   -6.5
I     0.2   -9.7    2.8
I     0.6   -5.6    8.4
I     6.4    5.5    5.6
P    -6.1   -7.8    2.4
I    -6.6   -7.8   -0.8
H    -7.5   -3.1    6.3
I    -9.7   -3.1   -0.8
H    -7.3   -3.0   -6.6
H    -5.8    6.3   -5.7
I     9.3   -0.9   -4.4
H    -2.1   10.1    0.4
H     7.6    1.2    6.9
C     6.6   -7.9   -0.6
H     8.7    1.5    5.5
H    -3.2    9.8   -0.9
I    -4.2   -1.5    9.4
H   -10.1    0.4   -2.4
I     6.7   -3.4   -7.2
H     0.1   -7.4   -7.3
I    -3.8    3.1    9.2
N     6.8    2.1   -7.6
I     3.3   -8.2    5.6
C    -2.3   10.2   -0.6
H     6.8   -8.0    0.4
N    -2.0   -7.0   -7.6
H    -1.2   -7.9    6.9
C    -0.9   -7.8   -7.0
H     6.9    3.1   -7.3
I     4.6   -1.5    9.4
I     2.2   10.3   -0.8
P    -1.8    5.5    8.8
N     3.2    6.4   -7.8
H    -1.2   -9.0    5.5
H    -1.5    0.3   10.5
H     6.7   -6.1    5.5
H     6.7   -7.1    4.2
C     7.9    1.3   -7.0
H    -9.0    1.5    5.5
H    -6.0    7.3    5.0
C    -6.5    5.7    6.3
P    -5.9   -7.9   -4.0
I    -8.0   -5.5   -4.4
H     7.8    0.2   -7.4
H    -1.3    9.1    5.5
I     1.1    4.0   -9.9
H    -2.9   -7.3   -7.4
C    -6.3    5.8   -6.6
P    -6.2    1.0    8.8
H     4.2    6.2   -7.8
H     2.7    5.9   -8.6
H     5.7   -7.4    5.5
I     9.8    3.9    2.9
P     2.9    1.4  -10.4
I     0.5  -10.0   -4.4
H    10.6   -2.7   -0.8
P     2.7   10.3    2.4
I     5.0    3.1    9.2
H   -10.9    1.0    0.4
H    -4.6    6.2   -7.8
P    -1.4   -3.1  -10.4
H    -6.0   -3.1   -8.6
N     6.7   -7.1    5.2
C   -11.1    1.2   -0.6
I     9.6    3.5   -4.4
I    11.1    1.2   -0.8
I     1.2   -5.0   -9.9
H    -6.0    6.2    7.1
P   -10.4   -3.3    2.4
H     3.1    7.4   -7.8
H   -11.0    2.2   -0.9
H     6.9    2.1   -8.7
H    -1.9   -7.0   -8.7
I     6.6    5.7   -7.2
H     5.6    9.8   -0.9
P     2.8   10.2   -4.0
I    -5.5   -8.2    5.6
I     3.5   -8.1   -7.2
I    -4.2  -10.4    1.9
H     7.6    8.4   -1.1
H    -7.5    5.9    6.3
I    -9.8    5.9   -0.8
I     9.8   -5.2    2.9
H   -10.1    0.1    5.5
H    -2.2   11.3   -0.9
H    -1.0   -8.8   -7.4
N    -5.7    6.4   -7.8
H    -7.3    6.0   -6.6
H    -8.8    1.6   -7.3
I     4.7  -10.4    1.9
H    -9.9    1.3   -5.9
N    -1.4    0.3   11.5
C   -10.0    1.1    5.8
I    -3.8   -6.0    9.2
H     8.9    1.6   -7.3
I     0.2    8.0    8.5
P   -10.4   -3.4   -4.0
N     7.7   -8.7   -1.3
I    -4.0  -10.4   -3.5
I    -4.0   -1.2  -10.9
H     7.6   -8.6   -2.4
H     6.9   -6.0   -7.3
I    -3.4    3.3  -10.8
H    -0.4    0.6   11.7
H     3.2  -11.3    0.0
C    -1.2   10.2    5.8
H     3.0   -2.4   11.2
I     3.2    9.9    5.6
P    11.5    1.3    2.4
P     7.1   -3.6    8.8
H     1.8  -11.7   -0.8
H    -1.4   -0.7   11.8
H    -1.1    9.3   -7.4
H    -0.2   10.6    5.5
H     3.2  -11.3   -1.7
H   -11.0    1.9    4.2
H     5.9   -7.3   -7.4
N    11.6   -2.8   -0.8
I     9.6   -5.5   -4.4
H    -2.2   11.0    4.2
I     4.8  -10.4   -3.5
H    -1.1   10.4   -5.9
I     4.8   -1.2  -10.9
H     8.7   -8.3   -1.1
I    -5.3   -8.1   -7.2
P    -5.9    1.4  -10.4
P    -1.4    5.9  -10.4
H   -12.0    0.8   -0.9
C    -9.8    1.3   -7.0
I    -8.6   -1.1    8.5
I     5.1   -6.0    9.2
H    -6.1    5.9   -8.6
H     6.7   10.1    0.4
H     2.5    4.3   11.1
C     6.6   10.2   -0.6
N     2.8  -11.8   -0.8
P   -10.5    5.8    2.4
H    12.0   -2.3    0.0
P     2.7   -8.0    8.8
N     7.6    9.4   -1.3
H    -5.8    7.4   -7.8
H   -10.1    1.2    6.9
I    -0.9  -12.2   -0.8
P    -6.2   10.3    2.4
I     2.0    1.1   12.0
H     2.9  -10.8    5.0
I    -6.6   10.3   -0.8
I    -8.3    3.4    8.4
H    -9.0   -8.3   -1.1
H    -2.3    2.1   11.9
H    11.5    4.4    0.1
H    -9.9    0.2   -7.4
H    10.2   -3.1    6.3
H    12.0   -2.3   -1.7
H    10.5    6.4   -0.8
H     7.5    9.5   -2.4
I    -8.7    8.4    2.8
N   -11.0    2.0    5.2
H     2.5   -4.8   11.1
N    -2.2   11.0    5.2
H    -3.4    0.6   11.9
H     7.7   -9.7   -1.1
H     1.5   -2.8   12.0
H    -3.2   10.7    5.5
N     6.9   -7.0   -7.6
H    -1.3   10.2    6.9
P    11.7    1.2   -4.0
H    11.5   -4.6    0.1
H    11.5    4.4   -1.7
I     9.1   -1.1    8.5
I    -8.4    8.1   -4.4
C    -2.4    1.0   12.2
C     7.7   -7.9    5.8
C    -1.0   10.3   -7.0
P   -10.4    5.6   -4.0
H     7.8   -7.7   -5.9
P    -6.0   10.2   -4.0
I     5.5    3.3  -10.8
I    -1.1   -3.3   12.0
P     7.0    5.5    8.8
H    -1.9    1.2  -12.4
H    11.4   -3.2    4.2
H    11.6   -4.7   -1.7
N     2.6   -2.9   12.0
I     9.0    8.4    2.8
H   -11.0    2.9    5.5
I    -3.3   -5.7  -10.8
H    10.4   -3.0   -6.6
H    -5.6  -11.3    0.0
P    -1.6  -12.3    2.4
I    -5.6    9.9    5.6
C    12.0   -4.2   -0.8
H     8.7   -7.5    5.5
