         400
 sphere cut out from bulk 
P     0.3   -0.0   -0.0
I    -2.2   -0.3   -2.0
I    -1.7    0.4    2.5
I     0.2    3.2   -0.6
I     0.5   -3.2    0.6
I     2.9    0.4    1.9
I     2.3   -0.3   -2.6
H    -2.8    2.3   -0.3
H     0.0    2.7   -3.2
H     3.4   -2.3    0.2
H     1.1    1.6   -3.9
H     0.4   -2.1   -3.8
H     1.3    3.2    2.9
H    -0.3    1.9    4.1
C    -3.6    2.7    0.2
H    -4.1   -1.9   -0.5
H    -0.8   -3.3   -3.1
H     1.0   -3.2    3.1
H    -3.3    2.9    1.3
N     0.4    2.4   -4.1
H    -1.0   -2.4    4.1
H    -4.5    1.9    0.3
C    -0.4   -2.9   -4.1
H    -0.4    1.9   -4.6
C     4.3   -2.7   -0.4
H     4.7    1.9    0.3
H     3.9   -3.0   -1.4
H     1.2    1.6    4.7
N     0.5    2.3    4.6
C     1.0    3.5    3.9
N     0.9   -3.2    4.2
H     1.4   -2.4    4.6
H    -1.2   -2.4   -4.7
H     5.1   -1.9   -0.5
H    -4.0   -3.6    1.2
H    -3.5   -4.3   -0.3
C    -4.9   -2.7   -0.4
C    -0.5   -3.3    4.5
H     0.2    4.2    3.8
N    -4.1    3.9   -0.5
H    -3.3    4.6   -0.6
N    -4.3   -3.9    0.3
H    -4.4    3.6   -1.4
H    -1.0   -4.1    4.1
H     1.8    3.9   -4.2
C     1.0    3.5   -4.8
P    -4.2   -0.1    4.4
H     4.3    4.3    0.1
C     5.5    2.7    0.2
H     4.7    3.6   -1.4
H     0.1    2.6    5.6
H    -5.7   -2.3    0.2
H     1.8    3.9    4.4
H    -5.2   -3.0   -1.4
P    -4.3    0.0   -4.5
H     4.1   -4.6    0.4
H     1.1   -4.4   -4.3
N     4.8   -3.9    0.3
N     0.3   -3.9   -4.8
H     1.4   -4.1    4.5
P     0.3   -6.3   -0.1
P     0.3    6.3   -0.1
N     5.0    3.9   -0.5
H     5.2   -3.6    1.2
I    -4.2   -3.2    3.7
H    -4.9    4.3    0.1
H    -0.6   -3.3    5.6
H     0.2    4.2   -5.0
I    -1.6    0.5   -6.3
I     2.2   -0.5    6.2
P     4.9   -0.1    4.4
I    -6.3    0.4    1.9
I    -2.3   -5.9   -1.9
I    -1.7    5.9    2.4
H     5.8    2.9    1.3
P     4.9    0.0   -4.5
H     1.4    3.1   -5.8
I    -4.4    3.2   -3.9
H     6.4    2.3   -0.3
H     0.7   -3.6   -5.7
I     3.0    5.9    1.7
H    -5.0   -4.6    0.4
I     2.3   -5.9   -2.6
H    -0.4   -4.7   -5.1
I     4.8    3.2   -3.9
I     5.0   -3.2    3.7
H     5.6   -4.3   -0.3
I     6.9   -0.3   -2.0
I    -2.3   -0.6    6.9
I    -4.1   -3.1   -5.2
I    -1.7   -6.7    2.4
I    -6.9   -0.3   -2.6
I    -4.4    3.1    5.0
H     5.8    4.6   -0.6
I    -2.3    6.8   -1.9
I     4.7    3.1    5.0
I     3.0   -6.7    1.7
I     2.3    6.8   -2.6
I     2.9    0.6   -7.0
I     5.0   -3.1   -5.2
I     7.5    0.4    2.5
I     0.2    3.1    8.1
P    -4.2    6.2    4.4
I    -6.1    5.9    1.7
H    -3.3    3.2   -7.4
H    -3.3   -8.1   -0.6
P     0.3   -0.1    8.8
I     2.3   -5.9    6.1
P    -4.2   -6.3   -4.6
P    -8.8   -0.0   -0.0
P     0.3    0.0   -8.8
I     0.4   -3.1   -8.3
P    -4.2   -6.4    4.4
I    -1.6    6.0   -6.3
P    -4.2    6.4   -4.6
H    -7.9    3.2    2.9
H     4.0   -3.2    7.3
H     4.1    8.0    0.4
H    -3.6   -3.1   -7.7
P     5.0    6.2    4.4
H    -3.5    8.3   -0.3
H    -8.1    1.6   -3.9
P     4.9   -6.3   -4.6
I    -8.6   -3.2    0.6
I     6.8   -5.9   -1.9
P     5.0   -6.4    4.4
H     0.2   -8.4    3.8
H     4.3    3.1    7.6
P     4.9    6.4   -4.6
I    -6.1   -6.7    1.7
I    -6.9   -0.5    6.2
H    -8.1   -3.2    3.1
I    -1.6   -6.6   -6.3
H    -7.3    3.9   -4.2
H    -7.8   -2.4    4.6
H    -3.2   -2.4    8.4
I     2.2    6.7    6.1
H     4.3   -8.3    0.1
H     1.1    8.3   -4.3
I    -2.3   -5.9    6.9
I    -6.8   -5.9   -2.6
H    -2.9    2.2    8.7
H    -8.0    1.6    4.7
H    -7.3    3.9    4.4
I    -6.2    0.6   -7.0
H    -0.4    8.0   -5.1
H     8.2   -2.4    4.1
P     9.5   -0.0   -0.0
I     0.2   -9.5   -0.6
H    -1.0    8.5    4.1
H    -5.0    8.0    0.4
I     0.5    9.5    0.6
H    -5.1   -3.2    7.3
H    -4.9    3.1    7.6
H     8.4   -3.3   -3.1
I    -9.0    3.2   -0.6
H     8.0   -2.4   -4.7
H    -4.9   -8.3    0.1
H    -2.9    2.3   -8.9
H     3.9    2.4   -8.5
C    -8.2    3.5    3.9
N    -4.1   -8.8   -0.5
H     3.6   -2.2   -8.8
C    -3.4    3.2   -8.5
I     2.9    6.0   -7.1
I     6.9   -0.6    6.9
N    -8.2   -3.2    4.2
N    -4.3    8.8    0.3
H    -8.8   -2.1   -3.8
H     0.2   -8.4   -5.0
H     1.4    8.6    4.5
H     3.6   -2.4    8.8
I     7.5    5.9    2.4
I     6.8    6.8   -1.9
I     7.5    0.5   -6.3
I     9.3    3.2   -0.6
H    -7.8   -4.1    4.5
H     1.8   -8.7   -4.2
I     0.4   -3.3    9.3
H    -3.2   -4.1    8.4
C     4.1   -3.2    8.4
H     8.8    1.9    4.1
I    -2.3    6.7    6.9
H    -0.8    9.4   -3.1
H    -3.2   -2.2   -9.1
H    -4.0    9.0    1.2
N    -8.8    2.4   -4.1
N     0.3    8.7   -4.8
H    -2.9    4.0    8.7
H     5.8   -8.1   -0.6
H     1.8   -8.8    4.4
N    -3.7   -3.1   -8.8
I    -6.8    6.8   -2.6
H     5.8    3.2   -7.4
C     1.0   -9.2    3.9
H     1.0    9.4    3.1
H     5.6   -3.1   -7.7
H     1.3   -9.5    2.9
N     4.8    8.8    0.3
H    -9.1    2.7   -3.2
H     8.2   -4.1    4.1
H     9.2    2.7   -3.2
I     0.3    3.2   -9.5
H     5.6    8.3   -0.3
C    -8.1    3.5   -4.8
H     3.9    2.2    9.0
N    -3.7   -3.2    8.8
C     8.8   -2.9   -4.1
H     8.8    1.9   -4.6
N    -8.7    2.3    4.6
N     5.0   -8.8   -0.5
H    -8.1   -4.4   -4.3
H    -4.4   -9.0   -1.4
H    -7.7    3.1   -5.8
C    -3.4    3.1    9.1
N     4.4    3.1    8.6
I     9.7   -3.2    0.6
I     3.0   -6.7   -7.1
H     3.9    4.1   -8.6
H    -2.9    4.1   -8.9
H     3.6   -4.0   -8.8
H     4.7   -9.0   -1.4
C     8.6   -3.3    4.5
H    -5.3    2.4   -8.5
I     7.5   -6.7    2.4
N     0.9    9.4    4.2
H    -3.3   -9.7    1.3
N    -4.8    3.1    8.6
C    -5.1   -3.2    8.4
H     3.6   -4.1    8.8
C     1.0   -9.2   -4.8
H    -3.2   -3.9   -9.1
C    -0.5    9.4    4.5
N     4.4    3.2   -8.9
H     5.2    9.0    1.2
H     0.0  -10.0   -3.2
C     4.1   -3.1   -9.2
H     9.5   -2.1   -3.8
H    -9.5    1.9    4.1
H     3.9    9.7   -1.4
H     3.9    3.9    9.0
H     6.0   -2.4    8.4
H    -5.6   -2.2   -8.8
H    -9.0    4.2    3.8
C    -0.4    9.8   -4.1
N     9.5    2.4   -4.1
P     0.3    6.2    8.6
C    -3.6  -10.0    0.2
N    -4.8    3.2   -8.9
H    -5.3    2.2    9.0
H    -5.6   -2.4    8.8
C    -9.5   -2.9   -4.1
H     0.7    9.1   -5.7
H     8.6   -3.3    5.6
P     0.3   -6.4    8.6
H    -9.5    1.9   -4.6
H    -2.8  -10.4   -0.3
N     5.5   -3.1   -8.8
C     5.8    3.2   -8.5
N    -8.8   -3.9   -4.8
H    -8.5   -3.6   -5.7
H    -5.3    4.1   -8.6
P    -8.8   -6.3   -0.1
C     4.3   10.0   -0.4
P    -8.8    6.3   -0.1
N     5.5   -3.2    8.8
H    -9.9   -3.3   -3.1
H    -9.0    2.6    5.6
H     3.4   10.3    0.2
N     9.6    2.3    4.6
H     9.3    4.2    3.8
H     6.3    2.2    8.7
C    -5.1   -3.1   -9.2
I    -2.3   -0.4  -10.7
I    -6.9   -5.9    6.1
P     0.3   -6.3   -9.0
H    -0.6    9.4    5.6
I     2.9    0.4   10.5
I    -4.2    9.4    3.7
H    -3.6   -3.2    9.9
P     0.3    6.4   -9.0
H    10.2    1.6   -3.9
H    -8.9    4.2   -5.0
H    -5.2    9.7   -1.4
N     0.4  -10.3   -4.1
I    -4.3   -9.4   -3.9
I   -10.8    0.4    2.5
H    -5.6   -4.0   -8.8
C    -4.9   10.0   -0.4
H     6.0   -4.1    8.4
H    10.2   -3.2    3.1
H    -3.3    3.1   10.2
H     9.3    2.6    5.6
I    -6.2    6.0   -7.1
H     6.0   -2.2   -9.1
H    -1.0   10.3    4.1
H     6.3    2.3   -8.9
H    -5.3    3.9    9.0
C    -9.7   -3.3    4.5
H     8.8   -4.7   -5.1
C     5.8    3.1    9.1
H   -10.1   -2.4    4.1
H    -5.6   -4.1    8.8
H     1.4   -9.5   -5.8
H     0.4   10.6   -3.8
I     4.8   -9.4   -3.9
H    10.4    3.2    2.9
I     4.9    9.4    3.7
H    -1.2   10.2   -4.7
H     1.4   10.2    4.6
N     9.5   -3.9   -4.8
H     4.3    3.2  -10.0
N     0.5  -10.3    4.6
N    10.1   -3.2    4.2
I    -1.6    0.3   11.2
I     6.8   -5.9    6.9
C    10.1    3.5    3.9
I    -6.9    6.7    6.1
P     9.5   -6.3   -0.1
P     9.5    6.3   -0.1
H     5.8   -9.7    1.3
H     6.3    4.0    8.7
C     5.5  -10.0    0.2
H     4.0   -3.1  -10.2
H     9.4    4.2   -5.0
H    10.3    1.6    4.7
H    -4.1   10.7   -0.5
H     0.2  -10.1    5.6
I    -6.2   -6.7   -7.1
H    -0.3  -10.8    4.1
H    -4.9    3.2  -10.0
I   -11.4   -0.3   -2.0
H   -10.3   -2.4   -4.7
I     7.6    6.0   -6.3
H    -4.4  -10.7    0.3
H     6.0   -3.9   -9.1
I    -4.1    9.5   -5.2
I     2.2   -0.4  -11.4
H     6.3    4.1   -8.9
I    -4.4   -9.6    5.0
H   -10.1   -4.1    4.1
H     4.7  -10.7    0.3
H    -0.4  -10.8   -4.6
H    -9.7   -3.3    5.6
H    10.5   -2.4    4.6
I    11.4   -0.3   -2.6
H     1.1  -11.0   -3.9
H    -9.5   -4.7   -5.1
C    10.1    3.5   -4.8
H     5.6   -3.2    9.9
I     6.8    6.7    6.9
I     4.7   -9.6    5.0
H    -5.7   10.3    0.2
H     5.0   10.7   -0.5
H    -5.1   -3.1  -10.2
I     7.6   -6.6   -6.3
H    10.2   -4.4   -4.3
H     9.8   -3.6   -5.7
I     5.0    9.5   -5.2
H     1.2  -11.1    4.7
H     5.8    3.1   10.2
H   -11.9    2.3   -0.3
H    -7.3   -8.7   -4.2
I    12.0    0.4    1.9
H    10.5   -4.1    4.5
H     6.4  -10.4   -0.3
H    -7.3   -8.8    4.4
I    -6.2    0.4   10.5
H     1.4    2.9   11.8
H    -8.1    8.3   -4.3
H     0.2    2.8  -12.0
I     2.9    5.8   10.5
H    10.9    3.9   -4.2
I    -2.3   -5.7  -10.7
H    -0.6   -3.1  -12.0
I    -8.9    3.1    8.1
I    -8.7   -3.1   -8.3
H    10.5    3.1   -5.8
H    -7.8    8.6    4.5
H    -3.3   -9.4   -7.4
P    -8.8   -0.1    8.8
H    11.0    3.9    4.4
H    -3.2    8.6    8.4
H     0.7   -3.8   11.9
P    -8.8    0.0   -8.8
H     8.2    8.5    4.1
I   -10.8    0.5   -6.3
I     0.3   -9.6    8.1
H     4.0    9.4    7.3
I   -10.8    5.9    2.4
H    -2.9   -8.7    8.7
I    -1.6  -12.3    2.5
I     0.4    9.6   -8.3
P     0.3   12.6   -0.0
H    -7.8   -9.5    2.9
H    -2.9   -8.5   -8.9
P     0.3  -12.7   -0.0
I    -2.2   12.3   -2.0
I     6.9   -0.4  -10.7
H     3.9   -8.6   -8.6
