         400
 sphere cut out from bulk 
P     0.3   -0.6   -0.0
I    -1.7    1.9   -0.5
I     2.7    1.4    0.4
I    -0.3   -0.6    3.1
I     1.0   -0.8   -3.2
H     0.2    2.6    2.2
I    -2.2   -2.7   -0.6
I     2.1   -3.2    0.4
H    -0.3    2.8   -3.1
H    -2.8    0.3   -3.1
H     1.0    3.5   -2.2
C     0.6    3.1    3.1
H     1.7    3.0    3.1
H    -2.8   -0.4    3.7
H     0.4   -3.5   -3.2
C     0.5    3.5   -3.1
H     0.6   -4.1    2.3
H     4.3   -0.4    2.0
H     3.4   -1.6    3.0
H    -3.9   -1.6   -2.3
H    -0.9   -4.1   -2.3
H     0.2    2.6    4.0
H     3.5   -1.3   -3.1
H    -4.3    0.7   -2.2
H    -3.9   -2.1    2.3
H    -4.5   -0.4    2.0
C    -3.9    0.3   -3.1
H     4.5    0.7   -2.2
C     4.4   -1.2    2.7
N    -0.3   -4.2   -3.2
C    -4.4   -1.2    2.7
H     1.1    3.4   -4.0
N    -4.3   -1.2   -3.1
N    -3.8   -0.7    3.9
N     0.3    4.5    3.1
H    -0.9   -4.5    3.1
H     0.7    5.0    2.3
N     0.1   -4.6    3.1
N     4.6   -1.2   -3.1
H    -0.8    5.1   -2.3
P    -4.1    3.9    0.0
H    -0.8    4.7    3.1
H     5.0   -1.6   -2.3
H     0.6   -4.1    3.9
H    -3.9   -1.7   -3.9
C     4.9    0.3   -3.1
H     5.0   -2.1    2.3
H    -0.9   -4.1   -4.0
N    -0.2    4.9   -3.2
H    -4.3    0.7   -4.0
H     4.5    0.7   -4.0
H    -3.6   -1.5    4.6
P     4.7    3.9    0.0
H    -4.3    0.0    4.4
H     0.9   -5.7   -2.2
I    -3.3    4.1    3.1
I    -6.1    1.4    0.4
H    -5.3   -1.3   -3.1
H     4.5    0.0    4.4
P     0.4   -0.6    6.3
I     2.2    5.9    0.4
P     0.3   -0.6   -6.3
H     0.7    5.0    3.9
H    -5.4   -1.6    3.0
I    -1.6    1.9   -5.9
C     0.3   -5.6   -3.1
N     5.0   -0.7    3.9
H    -0.8    5.0   -4.0
H     0.5    5.6   -3.2
H     4.9   -1.7   -3.9
I     4.1    3.9   -3.2
I     2.9    1.4    5.8
P    -4.2   -5.3    0.0
H     6.0    0.3   -3.1
I    -2.3   -2.6   -5.8
C     0.5   -6.0    3.1
I    -2.1    6.5   -0.6
I    -3.5   -5.0    3.1
H     0.0   -6.5    2.2
I    -4.7    3.9   -3.2
I     2.2   -3.2    5.8
P     4.6   -5.3    0.0
H     1.0   -5.7   -4.0
H     6.0   -0.4    3.7
H     1.6   -6.2    3.1
H    -0.5   -6.3   -3.1
H     5.2   -1.5    4.6
I     6.6   -2.7   -0.6
I    -1.6    1.9    6.7
I     4.0   -5.2   -3.2
I     7.2    1.9   -0.5
I    -6.7   -3.2    0.4
I    -1.8   -7.2   -0.5
I     2.8    1.3   -6.8
I     5.5    4.1    3.1
I    -2.3   -2.6    6.8
H     0.1   -6.5    4.0
I    -4.8   -5.2   -3.2
I     2.1   -3.2   -6.8
I     5.3   -5.0    3.1
I     2.6   -7.8    0.4
H    -7.1    3.0    3.1
H    -3.7    7.1    2.3
I    -5.9    1.4    5.8
P    -4.1    3.9    6.3
I    -7.9   -0.8   -3.2
P    -4.1    3.9   -6.4
P     0.4    8.6   -0.0
P    -8.6   -0.6   -0.0
I     2.3    5.9    5.8
H    -3.7    7.5   -2.3
P     4.7    3.9    6.3
H    -7.8    3.5   -2.2
P     4.7    3.9   -6.4
H     3.5    7.6    3.0
I    -6.6    5.9    0.4
H    -3.7   -1.5   -8.0
I     1.1    8.3   -3.2
H     0.1    2.6   -8.6
H     5.1    7.1    2.3
I    -2.2    6.6   -5.8
I     8.5   -0.6    3.1
P     9.1   -0.6   -0.0
I     6.5   -2.6   -5.8
I    -0.2    8.6    3.1
P    -4.2   -5.2    6.3
I    -6.0    1.3   -6.8
H     3.6    7.8   -3.1
H     7.9   -4.1   -2.3
H    -3.8    7.5   -3.9
P    -4.3   -5.2   -6.4
H    -8.6    2.6    2.2
C    -8.2    3.1    3.1
I     2.2    5.9   -6.8
H    -4.4    0.0   -8.2
I     6.7    6.5   -0.6
H     1.2    3.4    8.6
H     5.1    7.5   -2.3
H     4.4    0.0   -8.2
H    -7.7    3.4   -4.0
I    -6.7   -3.2    5.8
P     4.6   -5.2    6.3
H    -2.9   -0.4   -8.9
P     4.6   -5.2   -6.4
C    -4.3    7.9    2.7
H     8.5    2.8   -3.1
I    -1.7   -7.2   -5.9
C     4.5    7.9    2.7
I    -0.4   -0.6   -9.5
I     7.2    1.9   -5.9
N    -4.1    8.0   -3.1
I     1.0   -0.8    9.4
H    -8.3   -4.1    2.3
N    -3.8   -0.7   -8.7
H    -0.8   -4.1    8.6
H     5.1   -1.5   -8.0
H    -3.8   -1.7    8.7
C    -8.4    3.5   -3.1
H     9.0    2.6    2.2
H     7.9   -4.5    3.1
H    -3.5    7.7    4.6
H     0.5   -4.1   -8.7
H    -4.3    0.7    8.6
H    -8.4   -3.5   -3.2
I    -2.1    6.6    6.8
I    -9.2   -0.6    3.1
H    -5.3    7.6    3.0
P     0.1   -9.7   -0.0
N     4.7    8.0   -3.1
H     4.4   -8.4   -2.2
H     4.6    0.7    8.6
H    -4.4   -8.4   -2.2
I     6.6   -2.6    6.8
H     8.0    5.1   -2.3
H    -2.9   -8.8   -3.1
H     7.9   -4.1   -4.0
H     8.0    4.7    3.1
H    -8.1    5.0    2.3
H     5.1    7.5   -3.9
H    -2.7    8.8    3.7
H    -2.7    0.4    9.5
H    -8.6    2.6    4.0
H    -0.3    2.8    9.5
H    -5.2    7.8   -3.1
I    -6.2   -7.8    0.4
H    -7.9   -5.7   -2.2
H    -0.7    5.0    8.6
H    -4.4    8.7    2.0
N    -3.6    8.4    3.9
H     4.4    8.7    2.0
I    -1.7   -7.2    6.7
H    -7.2   -6.2    3.1
C     0.5    3.1   -9.5
H     0.6    5.0   -8.7
H    -8.2   -4.1    3.9
N     8.5   -4.2   -3.2
N     5.0   -0.7   -8.7
H     0.5   -3.5    9.4
H    -9.2    2.8   -3.1
I     7.3    1.9    6.7
H     1.6    3.0   -9.5
I     2.8   -7.8    5.8
I     7.0   -7.2   -0.5
I    -6.7   -3.2   -6.8
C     0.5    3.6    9.5
H     5.0   -1.7    8.7
N    -8.5    4.5    3.1
H     9.0    2.6    4.0
I    -0.5   -9.7    3.1
C    -4.0   -8.9   -3.1
C    -3.8    0.3    9.5
H     3.6   -1.3    9.5
N    -8.7   -4.6    3.1
H     3.3   -1.6   -9.6
H     4.4   -8.4   -4.0
H     8.0    5.0   -4.0
I     9.8   -0.8   -3.2
H    -8.1    5.0    3.9
H    -4.5   -8.4   -4.0
N    -0.2   -4.2    9.4
H    -2.7    9.5   -3.1
H     9.2   -3.5   -3.2
H     1.0   -5.7    8.6
C     9.4    3.1    3.1
C     9.3    3.5   -3.1
H     5.3    7.7    4.6
N     8.6    4.9   -3.2
N    -4.2   -1.2    9.5
H     9.4   -4.1    2.3
H    -7.8   -5.7   -4.0
I     0.8  -10.0   -3.2
H    -8.3    5.6   -3.2
N     0.2    4.5   -9.5
P    -8.4   -0.6    6.3
N     9.0   -4.6    3.1
N    -9.1   -4.2   -3.2
H    -1.0   -4.5   -9.5
I    -6.5    5.9    5.8
C     4.8   -8.9   -3.1
N     0.1   -4.6   -9.5
C    -3.8    9.4   -3.1
P    -8.5   -0.6   -6.3
H     4.2   -9.6    2.0
N     9.1    4.5    3.1
H    -0.8    4.7   -9.5
H    -2.9   -9.5    3.7
N    -0.1    4.9    9.4
N     5.2    8.4    3.9
N     4.6   -1.2    9.5
C    -8.5   -5.6   -3.1
P     0.5    8.6    6.3
I   -10.5    1.9   -0.5
P     0.4    8.6   -6.3
H     9.9    3.5   -2.2
I     2.7   -7.8   -6.8
C     5.0    0.3    9.5
N    -9.0    4.9   -3.2
H     5.9   -0.4   -8.9
H     0.1    2.6  -10.4
C    -8.3   -6.0    3.1
H    -0.0   -6.5   -8.6
H    -9.7   -4.1   -2.3
H    -4.6   -9.6    2.0
C     4.3   -1.2   -9.9
I    -3.4    4.1   -9.5
I     2.9   10.5    0.4
H    -5.2   -1.3    9.5
H     8.4   -6.3   -3.1
H    -4.2    9.9   -2.2
C    -4.5   -1.2   -9.9
H     9.5    5.0    2.3
H     9.4   -4.1    3.9
I     6.6    6.6   -5.8
H     0.6    5.7    9.4
H    -4.2    9.2    4.4
H     4.4   -9.1    4.4
C     0.4   -5.6    9.5
H     1.1    3.5   10.4
H     5.9   -8.8   -3.1
H    -4.4   -9.1    4.4
I     4.2    3.9    9.4
H    -0.8   -4.1   10.3
H    -9.6    4.7    3.1
H    -9.6    5.1   -2.3
P     9.1   -0.6   -6.3
C     5.0    9.4   -3.1
H     4.6    9.9   -2.2
H    -9.7   -4.5    3.1
H    -8.8   -6.5    2.2
H    -3.8   -1.6   10.3
P     9.2   -0.6    6.3
H     0.5   -4.1  -10.3
I    -1.5   11.0   -0.5
C     9.1   -5.6   -3.1
H     4.6    9.2    4.4
I    -4.6    3.9    9.4
H     8.9   -6.5    2.2
H    -5.5   -1.6   -9.6
I    -6.6    5.9   -6.8
H     9.9    3.4   -4.0
H    -3.9   -2.1  -10.3
H    -4.2    0.7   10.4
H     6.1    0.4    9.5
I    -3.5   -5.0   -9.5
C     0.4   -6.1   -9.5
H    -9.7   -4.1   -4.0
H     6.1    8.8    3.7
N    -3.9   -9.9    3.9
H    10.5    3.0    3.1
H     4.6    0.7   10.4
H     9.3    5.6   -3.2
I   -11.1   -2.7   -0.6
I    10.9   -3.2    0.4
H     3.4  -10.4   -3.1
H    -0.4   -6.3    9.5
H     1.5   -6.2   -9.5
H     9.5    5.0    3.9
H     4.2   -0.4  -10.6
I    -6.0   -7.8    5.8
H    -4.2    9.9   -4.0
H    -0.7    5.1   10.3
H     9.7   -5.7   -2.2
I     4.1   -5.2    9.4
H     0.6    5.0  -10.3
C     9.3   -6.0    3.1
C     4.2  -10.4    2.7
H    -9.6    5.0   -4.0
I     6.7    6.6    6.8
P     0.3   -9.7    6.3
H    -4.6   -0.4  -10.6
P     0.2   -9.7   -6.3
H     3.2  -10.7    3.0
H     4.9   -2.1  -10.3
H     4.6    9.9   -4.0
H     5.0   -1.6   10.3
H    -8.8   -6.5    4.0
H    -3.6    7.7   -8.0
N    -4.4  -10.3   -3.1
I    11.6    1.4    0.4
C    -4.6  -10.4    2.7
I     5.4    4.1   -9.5
N     4.4  -10.3   -3.1
H    -9.3   -6.3   -3.1
I     7.1   -7.2   -5.9
H     8.9   -6.5    4.0
N     4.9   -9.9    3.9
H     6.1    9.5   -3.1
H    -4.0  -10.8   -2.3
I    -4.7   -5.2    9.4
I    -7.7    8.3   -3.2
H     5.9   -9.5    3.7
H     1.0   -5.7   10.4
I     5.3   -5.0   -9.5
H     0.3   11.8    2.2
H    -7.7    3.4    8.6
P    -8.4    8.6   -0.0
H     9.8   -5.7   -4.0
I    -6.1   -7.8   -6.8
H    -3.7    7.5    8.7
H     4.8  -10.8   -2.3
H   -11.6    0.3   -3.1
I    -2.4  -11.8   -0.6
H    -4.0  -11.2    2.3
I    -6.0   10.5    0.4
I   -10.4    1.9   -5.9
I     7.1   -7.2    6.7
H    -5.4  -10.4   -3.1
H    -4.0  -10.8   -3.9
H    -3.8  -10.6    4.6
H   -11.6   -0.4    3.7
H     5.2    7.7   -8.0
I    -7.8   -0.8    9.4
H    -0.0   -6.5  -10.4
H    -7.2    3.0   -9.5
H    -0.2   11.9   -3.1
I     3.0   10.5    5.8
I    -1.6    1.9   12.1
H     4.8  -11.2    2.3
H     8.0   -4.1    8.6
H    -5.6  -10.7    3.0
H     0.3   11.8    4.0
H    10.4   -6.2    3.1
H     4.8  -10.8   -3.9
I   -10.4    1.9    6.7
I     2.0  -12.4    0.4
H    -8.7    2.6   -8.6
I    -2.2   -2.7   12.1
I    11.0    5.9    0.4
I     8.6    8.6    3.1
H     5.1    7.5    8.7
P     9.2    8.6   -0.0
I     2.7    1.4  -12.2
I     1.1    8.3    9.4
P     0.3   -0.6   12.6
H     5.1  -10.6    4.6
H    12.2   -1.6    3.0
I    -1.5   11.1   -5.9
C     0.7   12.2    3.1
P     0.2   -0.6  -12.6
H     1.8   12.1    3.1
