         400
 sphere cut out from bulk 
I     0.3    0.8    0.0
H     1.4   -0.6    1.8
P    -2.3   -1.0   -0.0
H     1.4   -1.6   -2.2
N     1.8   -1.3    2.4
H     1.3   -0.1   -3.1
C     2.0   -0.9   -2.8
H     1.1   -1.9    2.8
H     2.8   -0.5   -2.2
H     2.5   -1.8    1.8
I    -0.4   -3.6    0.0
I    -2.2   -0.9    3.2
P     2.2    3.4   -0.0
I    -2.2   -1.3   -3.2
H    -1.8    1.7    3.3
H    -2.3    2.0   -3.0
C     2.6   -0.6    3.6
I    -4.2    1.6   -0.1
H    -2.3    3.5    1.7
H     1.9   -0.0    4.2
H    -0.7    3.0    3.4
H     3.3    0.0    3.1
N    -1.7    2.7    3.6
H    -1.5    4.2   -2.1
I     4.0   -2.9    0.1
I     4.7    1.6   -0.1
N     2.6   -1.6   -4.0
I     2.0    3.4    3.2
H    -0.7    3.8   -3.5
I     2.0    3.5   -3.2
C    -2.6    2.9   -3.4
C    -2.6    3.6    2.8
H     1.8   -2.0   -4.6
I    -0.5    5.3    0.0
N    -1.6    4.0   -3.1
H     3.0   -1.4    4.2
H    -1.5   -4.8   -2.1
H     3.2   -2.3   -3.7
H     3.1   -0.9   -4.6
H    -1.9   -4.0   -3.5
H    -3.6    3.2   -3.0
H    -1.9    2.8    4.6
I    -4.9   -2.9    0.1
H    -3.6    3.3    3.0
H    -2.3   -4.3    3.0
P     2.2   -5.5   -0.0
H    -2.7    2.8   -4.5
N    -1.6   -4.9   -3.1
H    -2.4    4.6    3.0
H    -2.3   -5.5    1.7
H    -0.6   -5.2   -3.5
H    -1.9    4.9   -3.5
H    -5.6    0.0    3.1
C    -2.5   -5.3    2.8
H    -6.1   -0.5   -2.2
I     0.4    0.8    6.5
I    -0.4    1.5   -6.4
I     2.1   -5.4   -3.2
P     6.6   -1.0   -0.0
I     2.0   -5.6    3.2
P    -2.2   -1.1    6.4
H    -0.6   -6.0    3.4
P    -2.2   -1.1   -6.5
H     5.3    3.2   -3.0
H     5.3    3.3    3.0
H    -6.4   -1.8    1.8
I     0.4   -2.9   -6.5
H    -5.7   -2.3   -3.7
I     3.9    6.1    0.1
H    -3.5   -5.6    3.0
C    -6.3   -0.6    3.6
N    -1.6   -6.2    3.6
H    -5.9   -1.4    4.2
H    -3.5   -5.7   -3.0
C    -2.6   -6.0   -3.4
H    -5.8   -0.9   -4.6
I    -0.4   -3.7    6.5
C    -6.9   -0.9   -2.8
I     4.0    0.7   -6.3
I     6.7   -1.3   -3.2
I     6.8   -0.9    3.2
H     6.7    2.0   -3.0
P     2.2    3.3   -6.5
P    -6.8    3.4   -0.0
N    -7.1   -1.3    2.4
P     2.3    3.5    6.4
H     6.6    3.5    1.7
H     1.0    7.0    2.8
N    -6.3   -1.6   -4.0
I    -4.0    1.7    6.3
H     2.4    7.1    1.8
C     6.3    2.9   -3.4
H     1.4    7.3   -2.2
H    -7.5   -0.6    1.8
C     6.4    3.6    2.8
H    -1.8   -6.1    4.6
H    -2.2   -6.9   -3.0
I    -5.0    6.1    0.1
H    -7.5   -1.6   -2.2
H    -2.6   -6.1   -4.5
I    -4.9    0.7   -6.3
H     7.1    1.7    3.3
I     4.1   -2.8    6.4
H    -1.7   -7.2    3.3
I     0.3   -8.1    0.0
H    -7.1   -0.0    4.2
I     4.9    1.7    6.3
H     6.3    2.8   -4.5
H    -7.6   -0.1   -3.1
H     3.2    6.6   -3.7
N     1.8    7.7    2.4
P    -2.4    7.9   -0.0
H     5.4   -5.6    3.0
I    -6.9    3.4    3.2
I    -0.5    5.2    6.5
I    -6.9    3.5   -3.2
H     5.4   -5.7   -3.0
I    -4.1   -3.7   -6.3
H     6.6   -4.3    3.0
I    -4.2   -7.4   -0.1
H    -7.8   -1.9    2.8
I    -4.8   -2.8    6.4
H     1.8    7.0   -4.6
N     7.3    2.7    3.6
H     6.5    4.6    3.0
I    -2.3    7.7   -3.2
H    -7.1   -2.0   -4.6
H     1.3    8.4    1.8
I    -8.6    0.8    0.0
H     1.8   -1.5    8.4
P    -6.7   -5.5   -0.0
P     2.3   -5.5    6.4
C     1.9    8.1   -2.8
H     7.4    4.2   -2.1
N     2.5    7.4   -4.0
H     6.6   -5.5    1.7
C     6.4   -5.3    2.8
I     4.8   -7.4   -0.1
I     4.8   -3.7   -6.3
H     7.1   -4.0   -3.5
H     2.6   -1.7   -8.3
H     7.1    2.8    4.6
P     2.2   -5.7   -6.5
N     7.3    4.0   -3.1
I     0.4    6.1   -6.5
I    -2.2    8.1    3.2
H    -2.6    2.6    8.3
H     7.4   -4.8   -2.1
H     3.0    7.5    4.2
H    -1.4    3.7    8.3
H     2.8    8.5   -2.2
I    -4.1    5.2   -6.3
I     8.5   -3.6    0.0
I     9.2    0.8    0.0
H     7.0    4.9   -3.5
H    -1.5    3.0   -8.7
I    -6.9   -5.4   -3.2
P     6.7   -1.1    6.4
N     7.3   -4.9   -3.1
C     6.4   -6.0   -3.4
P     6.7   -1.1   -6.5
C     2.5    8.3    3.6
I    -6.9   -5.6    3.2
H     8.3    3.0    3.4
H     1.3    8.8   -3.1
I     4.8    5.2   -6.3
H    -1.2    2.3    9.2
H    -5.7    6.6   -3.7
N    -1.9    3.0    8.9
H     1.4   -9.0   -3.1
H     8.2    3.8   -3.5
H     2.6    0.6    9.3
I     4.0    6.1    6.4
C     1.9   -1.4    9.4
H     3.0    8.1   -4.6
I     0.2    9.8    0.0
H     1.4   -9.5    1.8
H    -6.5    7.1    1.8
I    -0.4   -7.4   -6.4
H     6.3   -6.1   -4.5
P    -6.7    3.5    6.4
P    -6.7    3.3   -6.5
N     2.8   -1.8   -9.3
H    -1.3   -5.2    8.3
I    -2.4   -0.8    9.6
H     0.9   -1.1    9.9
I     8.4    5.3    0.0
H     1.8    8.9    4.2
H     0.9   -1.3   -9.9
H     2.1    0.1   -9.8
I    -2.5   -1.2   -9.7
H     3.4   -8.9    3.1
I    -9.4   -3.6    0.0
H     3.3    9.0    3.1
H     2.8   -9.4   -2.2
H    -2.6    4.3   -8.7
H     6.7   -6.9   -3.0
H     1.9   -9.0    4.2
I    -4.9    6.1    6.4
H     3.8   -0.6    9.4
N     2.9   -0.4    9.8
H    -2.6   -4.6   -8.7
C    -1.9    3.8   -9.3
P    -2.3  -10.0   -0.0
N     7.3   -6.2    3.6
P     6.5    7.9   -0.0
H     2.7   -2.8   -9.5
H     3.8   -1.6   -9.5
C     1.9   -1.0  -10.1
H     8.3   -5.2   -3.5
P    -2.3    7.8    6.4
I     0.4   -8.1    6.5
I     2.2    3.3    9.6
C     2.0   -9.8   -2.8
H     2.2   -2.4    9.9
P    -2.2    7.9   -6.5
H     7.1   -6.1    4.6
I    -4.0   -7.3    6.3
H    -5.9    7.5    4.2
H    10.3   -0.6    1.8
I     2.3    3.5   -9.7
C     2.6   -9.6    3.6
N    -6.4    7.4   -4.0
I    -2.1   -9.8    3.2
H    -6.3   -1.7   -8.3
H    10.0   -1.9    2.8
H    -9.6    3.0    3.4
H    -1.4   -6.0   -8.7
I     6.6    7.7   -3.2
N     1.9  -10.2    2.4
P    -6.6   -5.5    6.4
H    10.2   -0.1   -3.1
H     7.2   -7.2    3.3
H    -5.1   -0.6    9.4
H    -7.5    7.3   -2.2
H    -6.2    8.5   -2.2
H     6.3    2.6    8.3
H    10.4   -1.6   -2.2
H    -2.6   -6.3    8.3
H    -1.2    4.4   -9.7
N    -7.1    7.7    2.4
I     8.5    1.5   -6.4
H     8.3   -6.0    3.4
I    -8.6    0.8    6.5
H    -1.1   -4.5   -9.7
I    -9.4    5.3    0.0
C    -1.9   -5.2   -9.3
N    -1.8   -5.9    8.9
I     5.0   -7.3    6.3
H    -5.1   -1.6   -9.5
P    -6.7   -5.7   -6.5
H    -9.6    3.8   -3.5
H     1.5  -10.6   -2.2
H    -3.4    2.5  -10.1
H    -7.9    7.0    2.8
I    -2.2  -10.2   -3.2
H    -5.5   -8.9    3.1
I     6.7    8.1    3.2
H    -7.1    7.0   -4.6
H    -5.9    8.1   -4.6
C    -2.5    3.7   10.1
C    -7.0    8.1   -2.8
H    -5.6    9.0    3.1
H    -7.1   -1.5    8.4
I    -8.5   -2.9   -6.5
C    -6.4    8.3    3.6
N    10.8   -1.3    2.4
H    -3.1   -4.5    9.7
H    -3.2    4.5    9.7
H     3.0   -0.2   10.8
I     4.0   -8.3   -6.3
N    -2.7    3.1  -10.4
H     2.5  -10.8    1.8
H     1.1  -10.9    2.8
H     3.1   -9.8   -4.6
H     2.6    7.2   -8.3
N    -6.1   -1.8   -9.3
C    10.9   -0.9   -2.8
H    -6.3    0.6    9.3
H     1.8    7.4    8.4
P   -11.3   -1.0   -0.0
H    -1.8   10.7    3.3
I     2.3   -5.5   -9.7
I    -4.2   10.5   -0.1
H   -10.7    1.7    3.3
I     8.5   -3.7    6.5
I     2.3   -5.6    9.6
I     9.3    0.8    6.5
H    -1.2   -6.7    9.2
H    -9.6   -5.2   -3.5
H    -6.1   -9.4   -2.2
H     2.1   -1.1  -11.2
H   -10.5    4.2   -2.1
H    -7.6    8.4    1.8
I    -9.4    1.5   -6.4
H    -3.0    2.9   10.7
N    -6.0   -0.4    9.8
N   -10.6    2.7    3.6
H    -2.0    2.6  -11.0
I     4.7   10.5   -0.1
I    -4.9   -8.3   -6.3
N     2.6  -10.5   -4.0
H    -1.7    4.1   10.7
H    10.8   -0.0    4.2
I   -11.1   -0.9    3.2
H     3.1  -10.4    4.2
H     6.3    4.3   -8.7
H    -2.3   11.0   -3.0
P    11.1    3.4   -0.0
C    -2.4   -5.3   10.1
H   -10.4   -4.8   -2.1
H     2.6    6.1   -9.5
I     6.5   -0.8    9.6
I     6.5   -1.2   -9.7
H    11.4   -1.8    1.8
I   -11.2   -1.3   -3.2
H     6.3   -4.6   -8.7
N   -10.6    4.0   -3.1
N     7.0    3.0    8.9
H     5.5    2.5  -10.1
H   -11.2    2.0   -3.0
H    -9.5   -6.0    3.4
I     0.3    9.8    6.5
H    -6.3   -2.8   -9.5
I     9.4   -2.9   -6.5
H     7.6    3.7    8.3
H    -1.6   -4.8   10.7
I    -8.6   -8.1    0.0
H     7.5    3.0   -8.7
C    -7.0   -1.4    9.4
H    10.8   -2.0   -4.6
I    10.9    3.4    3.2
I     8.5    5.2    6.5
H   -11.3    3.5    1.7
H    11.7   -0.5   -2.2
I    10.9    3.5   -3.2
H    -6.9    0.1   -9.8
P     6.6  -10.0   -0.0
I    -9.3   -3.7    6.5
H     1.9  -10.9   -4.6
C    -6.3   -9.6    3.6
N   -10.5   -4.9   -3.1
N     2.8    7.1   -9.3
H   -10.8   -4.0   -3.5
H   -10.8    2.8    4.6
C    11.5   -0.6    3.6
H    -3.1    3.8  -11.0
H     2.2    6.6    9.9
P    -2.2  -10.0    6.4
H    -7.7    8.8   -3.1
H    -7.1    8.9    4.2
P    -2.2  -10.0   -6.5
P     6.7    7.8    6.4
H    -7.0   -9.0    4.2
H     7.7    2.3    9.2
H     5.8    4.5    9.7
H    -6.7   -2.4    9.9
I     4.0    9.6   -6.3
I    -6.7    3.3    9.6
P     6.7    7.9   -6.5
H     5.8   -4.5    9.7
H    -7.6   -9.0   -3.1
C     1.9    7.5    9.4
H     6.3   -6.3    8.3
C     7.0    3.8   -9.3
N    -2.6   -5.8  -10.4
I    -6.7    3.5   -9.7
H    -7.5   -9.5    1.8
N    11.5   -1.6   -4.0
H    -5.8   -9.8   -4.6
H     3.3  -11.3   -3.7
I    -0.5   10.5   -6.4
H    -5.9   -0.2   10.8
I     9.3   -8.1    0.0
I    -8.5    6.1   -6.5
C    -6.9   -9.8   -2.8
N    -1.7   11.7    3.6
C    -7.0   -1.0  -10.1
C   -11.5    3.6    2.8
C   -11.5    2.9   -3.4
I     6.8   -9.8    3.2
H     7.6   -5.2    8.3
H   -10.8    4.9   -3.5
P    11.1   -5.5   -0.0
H    -0.7   11.9    3.4
H   -11.3   -4.3    3.0
H    -3.4   -6.5  -10.1
I     4.0  -11.8    0.1
H    10.0    7.0    2.8
C     6.5    3.7   10.1
N     6.2    3.1  -10.4
I    -5.0    9.6   -6.3
P     2.1   12.4   -0.0
H     5.9    2.9   10.7
H     0.8    7.7   -9.9
H    -3.1   -5.1  -11.0
H     3.8    7.4   -9.5
I    -9.4    5.2    6.5
H    -5.8  -10.4    4.2
I    -0.4  -12.6    0.0
