         400
 sphere cut out from bulk 
P    -0.6    0.7    0.0
I     2.0   -1.1    0.0
I    -2.5   -1.8    0.3
I    -0.6    0.5   -3.2
I    -0.4    1.0    3.2
H    -0.1   -2.7   -2.3
I     1.2    3.4   -0.4
H     3.1    0.3   -1.9
H    -0.7   -2.7    2.9
I    -3.2    2.6   -0.2
H     2.5   -0.1    3.5
H     2.8    1.6   -2.9
N     3.5    1.0   -2.5
H     3.5    1.6    2.2
H    -0.9   -4.1    1.8
C    -0.1   -3.3   -3.2
H    -0.7    4.0   -2.2
C    -0.9   -3.7    2.9
H     4.2    1.5   -1.9
H    -0.6   -2.6   -4.0
H    -4.4    0.1    2.1
H    -3.8   -0.4   -3.1
H     4.5    0.1    2.1
C     4.1    0.9    2.7
H    -0.2    3.5    3.7
N     3.3    0.4    3.9
H     0.8   -3.7   -3.5
H    -3.9    1.4    3.2
H    -2.0   -4.1   -2.7
H    -0.9    4.9    1.8
H    -4.7    1.5   -1.9
P     3.9   -3.7    0.0
N    -1.1   -4.4   -3.0
H    -1.9   -3.9    3.3
H    -0.7   -5.0   -2.2
H     3.6   -0.3   -4.2
H     3.0    1.1    4.5
C    -4.8    0.9    2.7
H     1.0   -4.3    3.4
N    -1.1    4.6   -3.0
C     4.3    0.3   -3.6
H    -1.2    4.0   -3.9
C    -4.6    0.3   -3.6
I     1.3   -5.7   -0.4
N     0.1   -4.5    3.7
H     1.0    4.7    3.4
N     0.0    4.5    3.7
H    -4.1    1.1   -4.2
H     3.9   -0.3    4.4
H     5.1   -0.4   -3.1
N    -5.4    1.0   -2.5
H    -2.1    4.9   -2.7
H    -5.4    1.6    2.2
C    -1.0    5.3    2.9
H     5.0    1.4    3.2
H    -5.8    0.3   -1.9
H     0.0   -4.1    4.7
P    -5.1   -3.7    0.0
I     5.7    2.6   -0.2
H    -2.0    5.1    3.3
I     4.2   -3.5   -3.2
I     3.6   -4.2    3.2
P    -0.4    0.6   -6.4
H    -1.2   -5.0   -3.9
P    -0.7    0.5    6.4
H     4.8    1.1   -4.2
H     0.8    5.4   -3.5
P     3.8    5.3    0.0
C    -0.2    5.7   -3.2
H    -0.1   -5.5    3.7
I     6.4   -1.8    0.3
I    -4.7   -3.5   -3.2
I     1.2   -2.1    6.2
H    -5.0   -0.3    4.4
H    -5.3   -0.3   -4.2
H    -0.1    6.3   -2.3
H    -0.0    4.9    4.7
I     3.6    4.8    3.2
N    -5.6    0.4    3.9
H    -6.1    1.6   -2.9
I    -3.3   -1.3    6.0
I     1.5   -2.0   -6.5
I    -6.9   -1.1    0.0
I     2.3    2.5   -6.1
H    -0.7    6.3    2.9
I    -3.1   -6.4   -0.2
I     2.0    2.4    6.6
H    -6.4   -0.1    3.5
P    -5.1    5.3    0.0
I    -2.1    3.3   -6.2
I    -5.3   -4.2    3.2
I    -3.0   -1.2   -6.8
H    -5.9    1.1    4.5
H    -0.6    6.4   -4.0
I     4.2    5.5   -3.2
I    -2.6    7.2    0.3
I    -2.4    3.2    6.5
I    -5.4    4.8    3.2
I    -4.7    5.5   -3.2
I     2.0    7.9    0.0
I     5.6   -1.3    6.0
P    -0.6   -8.3    0.0
P     8.3    0.7    0.0
I    -7.7    3.4   -0.4
H     2.9   -7.4   -2.9
H     6.9   -4.1   -2.7
P     3.9   -4.0    6.4
H     3.6   -7.4    2.2
P     4.2   -3.9   -6.4
I     5.8   -6.4   -0.2
I    -0.3   -8.0    3.2
H     7.0   -3.9    3.3
I    -2.1   -5.7   -6.2
H     4.2   -7.5   -1.9
P    -4.8   -3.9   -6.4
H     6.8    4.9   -2.7
I     8.3    0.5   -3.2
H     3.3    1.2   -8.2
I    -2.4   -5.8    6.5
P     3.8    5.0    6.4
H     0.3   -4.0   -8.0
H    -4.7   -7.5   -1.9
P    -5.0   -4.0    6.4
H    -3.9   -7.6    3.2
I     5.9   -1.2   -6.8
H     8.2   -2.7    2.9
I    -0.6   -8.5   -3.2
N     3.6   -8.0   -2.5
P     4.1    5.1   -6.4
I     8.5    1.0    3.2
H    -0.8   -2.7    8.7
H     6.9    5.1    3.3
H     3.4   -0.4    8.6
H     8.1   -4.1    1.8
I     2.4   -6.5   -6.1
C     8.0   -3.7    2.9
H     4.2   -0.2   -8.3
I    -6.6    2.5   -6.1
I     1.1    6.9    6.2
H     8.2    4.0   -2.2
H    -5.3   -7.4    2.2
H     3.1   -8.7   -1.9
H     0.2    5.0   -8.0
N     7.8   -4.4   -3.0
P    -4.8    5.1   -6.4
H     7.7    4.0   -3.9
I    -7.6   -5.7   -0.4
C     4.2   -8.1    2.7
N     7.8    4.6   -3.0
H     8.9   -2.7   -2.3
H    -4.7   -0.2   -8.3
P    -9.5    0.7    0.0
H    -8.1   -3.7   -3.5
H     8.0    4.9    1.8
I    -0.9    0.4    9.5
H     3.1   -7.9    4.5
N     3.6    0.5   -8.9
P    -5.1    5.0    6.4
I     6.4    7.2    0.3
I     2.1   -6.6    6.6
I    -0.1    1.1   -9.5
H    -7.9   -4.3    3.4
H     2.8   -0.0   -9.2
H     5.1   -7.6    3.2
H     8.3   -2.6   -4.0
H    -9.0   -2.7   -2.3
I     1.4    7.0   -6.5
H    -4.4    0.9    8.6
P    -0.7    9.7    0.0
H     0.1    3.6   -9.0
I     6.5    3.2    6.5
C    -4.7   -8.1    2.7
H     4.5    0.9    8.6
H    -7.9    4.7    3.4
I     6.8    3.3   -6.2
H    -1.5    3.9    8.9
I    -6.9    2.4    6.6
H    -4.0   -8.0   -4.2
H     2.5    8.9    3.5
H     8.2   -5.0   -2.2
I    -9.3    1.0    3.2
C     8.8   -3.3   -3.2
H     3.0    9.3   -1.9
C     7.9    5.3    2.9
N    -5.3   -8.0   -2.5
H     0.5   -3.8    9.2
H     7.7   -5.0   -3.9
H    -3.9    8.6   -3.1
H    -6.0   -7.4   -2.9
I    -0.7    9.5   -3.2
H    -5.6    1.2   -8.2
N     0.3   -4.4   -9.0
N     3.4   -8.6    3.9
C     4.1    0.2    9.2
I    -9.5    0.5   -3.2
C    -0.4   -3.4    9.5
I    -7.4   -2.0   -6.5
H     8.7    3.5    3.7
H     2.6   -9.1    3.5
I    -7.7   -2.1    6.2
N     0.3    4.6   -9.0
H    -4.4   -8.9    2.1
C    -9.1   -3.3   -3.2
H    -0.4   -2.6   -9.8
H     4.9   -8.0   -4.2
H     4.5   -8.9    2.1
H    -5.5   -0.4    8.6
H     3.6    8.7   -4.2
H     2.6    1.5    9.9
I    -3.3    7.7    6.0
H    -1.5   -5.1    8.9
H     4.4    9.1    2.1
I     2.1  -10.1    0.0
N    -5.3    0.5   -8.9
H    -1.7   -3.8   -9.5
H    -3.6    1.5   -9.6
H    -4.5    9.1    2.1
H     1.3   -4.2   -9.4
H    -8.1    5.4   -3.5
C     4.4   -8.7   -3.6
H    -9.6   -2.7    2.9
C    -4.9    0.2    9.2
P     8.2    0.5    6.4
H    -9.1    3.5    3.7
C    -4.5   -8.7   -3.6
H     5.0    8.6   -3.1
I    -6.9    7.9    0.0
I    -0.4   10.0    3.2
H    -4.1   -0.5    9.7
P    -0.4   -8.4   -6.4
H     3.9    8.7    4.4
H     0.1   -5.4   -9.0
C    -0.7   -3.6   -9.9
H    -3.8   -9.4   -3.1
H     1.3    4.8   -9.4
H     0.5    5.2    9.2
N    -8.9   -4.5    3.7
P    -0.6   -8.5    6.4
H    -5.8   -8.7   -1.9
H    -9.5   -2.6   -4.0
P     8.5    0.6   -6.4
N    -8.9    4.5    3.7
N     8.9    4.5    3.7
N     3.3    9.4    3.9
H    -9.7    4.0   -2.2
N     9.0   -4.5    3.7
I    10.2    3.4   -0.4
H     8.2    6.3    2.9
H    -0.9    6.3    8.7
H    -9.8   -4.1    1.8
I    -3.1    7.8   -6.8
H    -0.3   -2.8   10.4
H    -5.8   -7.9    4.5
H     4.8   -0.5    9.7
N     3.3    0.9   10.3
N    -1.3   -4.5    9.7
N    -1.4    4.5    9.7
C     4.3    9.3   -3.6
H     3.7   -9.3   -4.2
I     6.8   -5.7   -6.2
N     3.5   10.0   -2.5
I     6.5   -5.8    6.5
H    -8.9   -4.1    4.7
H     8.9   -4.1    4.7
C    -9.8   -3.7    2.9
H    -1.7    5.2   -9.5
C     8.7    5.7   -3.2
N    -5.5   -8.6    3.9
I     4.0   -3.6    9.5
C    -4.6    9.3   -3.6
C     4.4    1.0  -10.0
H     9.7   -3.7   -3.5
H     8.8   -5.5    3.7
I    10.9   -1.1    0.0
C    -4.5    1.0  -10.0
H    -5.3    8.7   -4.2
H    -5.0    8.7    4.4
H     4.0   -9.3    4.4
H     5.3    1.5   -9.6
C    -0.5    5.6    9.5
H    -9.6   -5.0   -2.2
H    -6.1   -0.0   -9.2
C     4.1    9.9    2.7
H     8.8    6.3   -2.3
H    -2.3   -4.2   10.0
I    -6.6   -6.5   -6.1
I    -2.5  -10.8    0.3
H     5.1   -9.4   -3.1
I     3.9   -4.1   -9.6
H    -9.8    4.9    1.8
H    -5.9    9.3   -1.9
H     8.9    4.9    4.7
H     8.3    6.4   -4.0
H    -9.0    4.9    4.7
H    -9.1   -5.5    3.7
H     2.8    0.2   10.9
H    -1.0    3.9   10.5
I     5.6    7.7    6.0
C    -0.7    5.4   -9.9
C    -9.1    5.7   -3.2
H    -9.0    6.3   -2.3
P    -9.3    0.6   -6.4
N   -10.0   -4.4   -3.0
H     2.8   10.6   -2.9
I    -5.0   -3.6    9.5
H     3.8    1.7  -10.6
H     9.9   -4.3    3.4
H    -2.3    4.8   10.0
C    -4.8    9.9    2.7
H     3.5   10.6    2.2
H    -4.9   -9.3    4.4
H    -4.2    0.2  -10.6
I     3.8    4.9   -9.6
N   -10.0    4.6   -3.0
H     9.9    4.7    3.4
H    -5.2   -9.3   -4.2
H     4.1   10.5   -1.9
H     3.0   10.1    4.5
P    -0.7    9.5    6.4
P    -9.6    0.5    6.4
H    -6.5    8.9    3.5
P    -0.5    9.6   -6.4
C    -9.9    5.3    2.9
I    -5.0   -4.1   -9.6
I   -11.4   -1.8    0.3
H   -10.2    4.0   -3.9
I    -6.8   -6.6    6.6
N    -5.6    9.4    3.9
H    -4.0   10.4    3.2
N    -5.4   10.0   -2.5
H     9.7    5.4   -3.5
H    -0.6   -4.0  -10.9
I     3.9    5.4    9.5
H     4.7    0.2  -10.6
H    -4.1   10.1   -4.2
H     3.9    1.4   10.9
H    -6.4   -9.1    3.5
I    10.2   -5.7   -0.4
H    -1.0   -5.1   10.5
H    -4.8   10.5   -1.9
N    -5.6    0.9   10.3
H    -0.5    6.4   -9.8
P     8.4   -8.3    0.0
H     3.3   -7.8   -8.2
H    -6.4    1.5    9.9
H    -5.1    1.7  -10.6
I     5.9    7.8   -6.8
H     4.8   10.1   -4.2
I    -5.1    4.9   -9.6
H    -9.7    6.3    2.9
H   -10.1   -5.0   -3.9
H    -0.0  -11.7   -2.3
H    11.4   -0.1    3.5
H   -10.9   -4.1   -2.7
H   -10.8   -3.9    3.3
H     5.0   10.4    3.2
H    -0.6    5.0  -10.9
I    -5.0    5.4    9.5
H    -0.6  -11.7    2.9
H    -5.0    1.4   10.9
I    10.1   -2.1    6.2
I    -3.2   11.6   -0.2
I    -7.8    6.9    6.2
H    -5.4   10.6    2.2
H    12.0    0.3   -1.9
H    -0.4    6.2   10.4
I    -7.5    7.0   -6.5
H    -9.5    6.4   -4.0
I     8.6   -8.0    3.2
H     8.1   -2.7    8.7
H    11.7    1.6   -2.9
H     7.4    3.9    8.9
I    -6.8  -10.1    0.0
H    -0.5  -11.6   -4.0
I    -3.2  -10.3    6.0
H   -11.0    4.9   -2.7
I     8.4   -8.5   -3.2
I   -12.1    2.6   -0.2
I    -0.1   -7.9   -9.5
I     1.2   12.4   -0.4
I    10.4   -2.0   -6.5
H   -10.9    5.1    3.3
I     8.0    0.4    9.5
H    -8.6   -4.0   -8.0
H    -6.1    0.2   10.9
H     7.3   -3.8   -9.5
H    -4.3   -8.1    8.6
I    -3.0  -10.2   -6.8
H    -6.1   10.6   -2.9
H    -5.9   10.1    4.5
H     3.3    8.6    8.6
P    -9.5   -8.3    0.0
I     6.5  -10.8    0.3
H    -5.6   -7.8   -8.2
H     4.6   -8.1    8.6
H     7.4   -5.1    8.9
I    -9.3   -8.0    3.2
H    -3.6   -7.5   -9.6
H     2.6   -7.5    9.9
C    -0.1  -12.3   -3.2
