         400
 sphere cut out from bulk 
P     0.1   -1.7   -0.0
I    -1.7    1.0    0.1
I     2.8    0.2   -0.0
H    -0.7    1.8    2.4
H     0.5    1.2   -3.1
I     0.2   -1.5   -3.2
I     0.2   -1.5    3.2
H    -0.3    3.1   -1.9
N    -0.8    2.4    3.2
N     0.8    2.2   -3.4
H     1.7    2.4   -3.1
C    -0.3    3.1   -3.0
I    -2.5   -3.5   -0.1
H     2.8   -1.2    3.2
H     3.8   -1.3   -1.9
H    -0.8    1.8    4.1
H     1.2    3.0    3.2
H    -1.2    2.8   -3.4
H    -1.7    2.8    3.2
H     0.1    4.0    2.3
I     2.0   -4.2   -0.0
C     0.3    3.4    3.2
H    -3.4   -0.8   -3.4
H     0.8    2.1   -4.4
H     4.0   -0.1    3.0
H    -3.2   -1.8    3.5
H    -4.0   -2.5   -1.8
I     2.0    4.7   -0.0
H     3.5   -2.8   -2.7
H    -4.2   -2.2    2.1
P    -4.4    2.8   -0.0
N     3.8   -1.0    3.5
N     4.2   -2.1   -2.5
H     0.0    4.1   -3.4
P     4.6    2.8   -0.0
H     0.1   -4.9    2.3
H     4.7   -2.2    2.1
C    -4.2   -2.1    3.1
H    -5.2   -1.3   -1.9
N    -4.7   -2.1   -2.5
C    -4.1   -1.5   -3.7
H     0.1    4.1    4.1
H    -4.9   -0.1    3.0
H     4.9   -2.5   -1.8
H     3.7   -0.8    4.5
H    -0.0   -4.8   -3.4
I    -2.5    5.4   -0.1
H     4.1   -1.0   -4.3
C     4.7   -2.1    3.1
I    -4.4    2.7    3.2
H    -3.7   -2.4   -4.3
I     4.4    2.8   -3.2
H    -0.3   -5.8   -1.9
I     4.6    2.7    3.2
I    -6.2    0.2   -0.0
I    -4.6    2.8   -3.2
C     4.8   -1.5   -3.7
N    -5.2   -1.0    3.5
H     0.1   -4.9    4.1
C     0.2   -5.5    3.2
H     4.4   -3.0    3.6
C    -0.3   -5.8   -3.0
H    -4.6   -3.0    3.6
P     0.1   -1.6   -6.4
H    -4.9   -1.0   -4.3
H     5.6   -0.8   -3.4
P     0.0   -1.6    6.5
H    -5.5   -2.8   -2.7
I    -1.8    1.0    6.4
I    -2.4    0.3   -6.5
H     5.7   -1.8    3.5
H     1.2   -6.0    3.2
I     2.0    1.0   -6.6
H    -5.3   -0.8    4.5
H    -6.2   -1.2    3.2
H    -1.3   -6.1   -3.4
I     2.7    0.2    6.6
H     5.3   -2.4   -4.3
H    -1.8   -6.2    3.2
I     7.2    1.0    0.1
P     0.1    7.3   -0.0
I     6.4   -3.5   -0.1
N    -0.8   -6.6    3.2
H     1.7   -6.6   -3.1
P    -4.4   -6.2   -0.0
H     3.5    6.2   -2.7
H    -0.8   -7.2    2.4
I    -2.6   -3.5    6.3
N     0.7   -6.8   -3.4
P     4.5   -6.2   -0.0
I    -1.7   -4.2   -6.3
H    -4.0    6.4   -1.8
I     2.8   -3.5   -6.5
I     1.9   -4.2    6.4
I    -1.7    4.7   -6.3
I     0.2    7.4    3.2
I     0.3    7.5   -3.2
I    -7.0   -4.2   -0.0
I    -1.8   -8.0    0.1
I     4.4   -6.2   -3.2
I     2.0    4.7    6.4
H     0.8   -6.9   -4.4
H    -7.2    2.4   -3.1
H    -4.2    6.8    2.1
P    -4.3    2.9   -6.4
H    -0.8   -7.2    4.1
H     4.4    6.0    3.6
I    -4.6   -6.2   -3.2
I    -4.4   -6.3    3.2
H     5.0    6.4   -1.8
H    -4.5    6.0    3.6
P    -4.4    2.8    6.5
H     7.2    2.8    3.2
H     0.5   -7.8   -3.1
I     4.5   -6.3    3.2
P     4.5    2.8    6.5
I    -7.0    4.7   -0.0
P     4.6    2.9   -6.4
I     6.4    5.4   -0.1
N     4.2    6.9   -2.5
H     4.8    6.8    2.1
H    -3.2    7.2    3.5
H    -3.6    6.6   -4.3
C    -4.2    6.9    3.1
H    -5.4    6.2   -2.7
N    -4.7    6.9   -2.5
I    -2.6    5.5    6.3
H     8.2    1.8    2.4
H     3.8    7.7   -1.9
H     2.8    7.8    3.2
H    -7.7    3.0    3.2
H     7.7    2.8   -3.4
H     0.7    2.1    8.6
C     4.8    6.9    3.1
I     2.8    5.5   -6.5
H    -8.4    1.2   -3.1
P    -8.9   -1.7   -0.0
N     8.2    2.4    3.2
I    -6.3    0.2    6.6
N    -8.2    2.2   -3.4
P     9.0   -1.7   -0.0
H    -0.6    3.7   -8.4
I     6.5    0.3   -6.5
I     2.7   -8.8   -0.0
H    -0.5    3.4    8.6
C    -4.1    7.4   -3.7
H     8.2    1.8    4.1
H     0.1    1.5   -9.2
H     8.7    3.1   -1.9
I    -8.7   -1.5   -3.2
H    -5.1    7.7   -1.9
I    -8.7   -1.5    3.2
H    -3.3    8.2   -3.4
H    -8.1    2.1   -4.4
H     5.3    6.6   -4.3
N     3.8    8.0    3.5
H    -3.8   -2.4    8.4
I     2.8    9.1   -0.0
I    -6.2   -3.5   -6.5
I     6.4   -3.5    6.3
I    -6.9    1.0   -6.6
C     0.3    2.9    9.2
C     4.9    7.4   -3.7
I     7.2    1.0    6.4
C     8.7    3.1   -3.0
P     0.2    7.4   -6.4
H    -4.3   -0.4   -8.8
P     0.1    7.3    6.5
I    -0.2   -1.7    9.7
I     9.1   -1.5    3.2
I     9.2   -1.5   -3.2
I     0.2   -1.8   -9.7
H     5.7    7.2    3.5
P    -4.3   -6.1   -6.4
H     1.4    2.7   -9.4
C    -8.7    3.4    3.2
H     4.1    7.9   -4.3
H    -0.7   -5.3   -8.4
H     3.8   -2.6   -8.8
H    -9.2    3.1   -1.9
H    -8.8    4.0    2.3
H     4.7   -0.4   -8.8
P    -4.5   -6.1    6.5
P     4.5   -6.1    6.5
P     4.6   -6.1   -6.4
H     7.2   -6.2    3.2
C     0.4    2.4   -9.7
H     3.7    8.2    4.5
H     9.5    1.2   -3.1
N    -0.6    3.5   -9.4
I    -1.7    9.9    0.1
N    -5.2    8.0    3.5
H     3.1   -1.7    9.5
H    -9.7    1.8    2.4
H     5.2   -2.4    8.4
C    -9.2    3.1   -3.0
H     2.8   -1.7   -9.6
H     1.0    3.7    9.4
H     9.1    4.0    2.3
H    -0.6   -5.6    8.6
H     4.0    8.9    3.0
H    -3.1   -1.5   -9.6
H    -4.9    7.9   -4.3
H    -7.3   -6.6   -3.1
H    -7.7   -6.0    3.2
H     4.0   -9.0    3.0
C     9.2    3.4    3.2
H    -1.5    3.3   -9.7
H    -6.1    7.8    3.2
I    -1.8   -8.0    6.4
H    -8.8   -4.9    2.3
H     7.7   -6.1   -3.4
I    -7.0   -4.2    6.4
H    -1.1    1.7   10.2
H    -8.9    4.1   -3.4
H     9.0    4.1   -3.4
H    -2.9   -2.1    9.8
H     4.3   -0.4    9.5
I    -6.1    5.5   -6.5
N    -3.8   -2.4    9.5
I     7.3   -4.2   -6.3
H    -5.1   -2.6   -8.8
H     5.6    8.2   -3.4
I     6.4    5.5    6.3
I     2.0   -7.9   -6.6
N     9.7    2.2   -3.4
N    -9.7    2.4    3.2
C    -4.1   -1.0   -9.7
H    -8.8    4.1    4.1
N     3.8   -2.1   -9.6
H     8.6   -5.8   -1.9
H     9.1   -4.9    2.3
H    -4.6   -0.4    9.5
H    -4.9    8.9    3.0
I    -7.0    4.7    6.4
P     0.0  -10.6   -0.0
H     0.6   10.2   -3.1
H    -5.2    8.2    4.5
H     8.9   -4.8   -3.4
H    -9.7    1.8    4.1
N    -0.4    2.4   10.4
I     7.3    4.7   -6.3
H    -9.0   -4.8   -3.4
I     7.2   -8.0    0.1
I   -10.7    1.0    0.1
H    -5.0   -9.0    3.0
H     9.1    4.1    4.1
I    -6.2   -8.8   -0.0
C     4.1   -1.4    9.9
H    -0.3    4.4   -9.8
C    -8.7   -5.5    3.2
C     8.6   -5.8   -3.0
H    -0.4   -4.5   -9.8
C     4.8   -1.0   -9.7
N    -0.6   -5.4   -9.4
H    -3.4   -9.8   -3.4
H     1.0   -5.3    9.4
I     0.2  -10.4   -3.2
H    -8.9   -4.9    4.1
I    -4.1    3.0   -9.7
N     8.1   -6.6    3.2
H     9.8    2.1   -4.4
C     0.2   -6.0    9.2
I     0.2  -10.5    3.2
H     2.8  -10.2    3.2
N     5.1   -2.4    9.5
I    -6.2    9.1   -0.0
P    -8.8   -1.6   -6.4
H    -0.7   10.7    2.4
I    -4.4    3.0    9.7
H     0.7   -6.9    8.6
H     9.0   -4.9    4.1
H     0.4    2.3  -10.8
I    -2.4   -8.7   -6.5
H     3.7  -10.3   -1.9
H    10.2    3.0    3.2
H   -10.2    2.8   -3.4
H    -4.1   -3.3    9.8
H    -9.3   -5.8   -1.9
I     4.6    3.0    9.7
C    -4.9   -1.4    9.9
N    -5.2   -2.1   -9.6
P    -8.9   -1.6    6.5
H     8.2   -7.2    2.4
N     3.7   -9.9    3.5
C     9.2   -5.5    3.2
I     4.8    3.0   -9.7
P     9.0   -1.6    6.5
H     0.3    1.9   11.0
N    -8.2   -6.8   -3.4
P     9.1   -1.6   -6.4
H    -5.8   -1.7    9.5
I     2.6   -8.7    6.6
H    -3.7    6.6    8.4
C    -9.2   -5.8   -3.0
H     1.3   -6.2   -9.4
H     5.8   -1.5   -9.6
H    -1.6   -5.7   -9.7
H    10.7    2.4   -3.1
H     3.7   -9.8    4.5
H    -4.2   -0.4  -10.6
H     4.9   -3.3    9.8
H    -0.8    3.1   11.0
H     3.8   -2.7  -10.5
H     3.9    6.3   -8.8
P    -8.9    7.3   -0.0
H   -10.7    2.8    3.2
H    -6.1   -1.7   -9.6
H    -8.1   -6.9   -4.4
I    -2.4    9.3   -6.5
H    -0.7   10.8    4.1
H     4.7   -0.4  -10.6
H     8.2   -7.2    4.1
H     4.0  -10.0   -4.3
P     9.0    7.3   -0.0
I     2.7    9.2    6.6
N     0.8   11.1   -3.4
H    -5.2  -10.3   -1.9
I    10.9   -4.2   -0.0
I    11.7    0.2   -0.0
H     6.1   -2.1    9.8
C     0.3   -6.5   -9.7
H     5.6   -9.8   -3.4
H    -3.3  -10.7    3.5
N    -5.2   -9.9    3.5
H     4.0   -1.4   11.0
N    -0.8   11.3    3.2
H     0.0   -7.4   -9.2
C    -4.1  -10.5   -3.7
H     5.2    6.6    8.4
H    -8.4   -7.8   -3.1
I    -8.7    7.4    3.2
H     1.7   11.4   -3.1
I    10.9    4.7   -0.0
I    -8.7    7.5   -3.2
H    -5.1    6.3   -8.8
H    -5.1   -2.7  -10.5
H    -4.9  -10.0   -4.3
H     0.9   11.1   -4.4
I    -1.7   10.0    6.4
H    -5.3   -9.8    4.5
H    -4.0    5.6    9.8
I   -11.5   -3.5   -0.1
N     4.2  -11.0   -2.5
I     0.2    7.2   -9.7
I    -0.2    7.3    9.7
H    -8.2    2.1    8.6
C     4.8  -10.5   -3.7
H    -4.9   -1.4   11.0
I    -4.2   -6.0   -9.7
H    -4.3  -11.2    2.1
I     2.0   10.0   -6.6
N    -3.8    6.6    9.5
I    -4.4   -6.0    9.7
H    11.7   -1.2    3.2
N    -9.8   -6.6    3.2
H    10.1   -6.0    3.2
C    -4.3  -11.0    3.1
I     9.2    7.4    3.2
I     4.6   -6.0    9.7
H    -0.3   12.1   -1.9
N    -4.8  -11.0   -2.5
H     4.7  -11.2    2.1
I     7.2    9.9    0.1
I     9.2    7.5   -3.2
H    -2.9    6.9    9.8
H    -1.7   11.8    3.2
H    -6.2  -10.2    3.2
N     9.7   -6.8   -3.4
N    -0.4   -6.6   10.4
H    -4.1  -11.5   -1.8
H     4.9    5.6    9.8
H    -1.2   11.8   -3.4
I     4.8   -6.0   -9.7
H    -9.7   -7.2    2.4
H     8.3    3.7   -8.4
P     0.1  -10.6   -6.4
H    -7.6    2.7   -9.4
H     3.1    7.3    9.5
H   -10.2   -6.1   -3.4
C     4.7  -11.0    3.1
H     1.3   11.9    3.2
H     2.9    7.3   -9.6
P     0.0  -10.6    6.5
N     3.8    6.9   -9.6
I    -7.0   -7.9   -6.6
H    -0.8   -5.8   11.0
I     7.1   -8.0    6.4
C    -0.2   12.1   -3.0
H     8.4    3.4    8.6
H     3.4  -11.7   -2.7
I   -10.7    1.0    6.4
P    -4.4   11.8   -0.0
H    -1.1   -7.3   10.2
H    -3.1    7.5   -9.6
H     4.9  -11.5   -1.8
P     4.6   11.8   -0.0
I     6.5   -8.7   -6.5
H     9.5   -7.8   -3.1
N     5.1    6.6    9.5
