         400
 sphere cut out from bulk 
P     0.4   -0.1    0.9
I    -2.0   -0.0   -1.3
I     1.7    2.0   -1.2
I     1.7   -2.2   -1.3
P     0.5    0.0   -3.4
I    -0.7    2.1    2.9
I    -0.8   -2.1    3.0
I     2.8   -0.0    2.9
H    -3.6   -1.9   -0.6
H     1.3    4.0    0.4
H     0.3    4.1    1.8
H    -3.6    1.9   -2.0
H    -3.3   -3.0    1.7
H     4.1   -2.5   -0.6
N     0.9    4.7    1.1
H     0.8   -4.4   -2.1
H    -4.4   -1.6    1.6
N    -4.2   -2.7   -0.2
P     0.5    0.1    5.0
C    -4.2   -2.7    1.3
H     4.1    2.5   -2.0
H    -3.9   -3.6   -0.5
H     4.9   -1.6    1.6
H    -0.7    5.4    0.1
N    -4.2    2.7   -2.3
H     1.8    5.0    1.7
H    -3.9    3.6   -2.0
H     4.3   -3.3    1.7
N     5.1   -2.7   -0.2
H    -5.2   -2.5   -0.6
C     0.2    5.8    0.6
I    -0.9   -2.0   -5.5
C     5.1   -2.7    1.3
N     0.5   -5.3   -2.5
I    -0.6    2.2   -5.4
H    -0.5   -5.5   -2.1
H     5.7   -1.9   -0.6
H    -3.2    3.0   -4.2
H    -5.2    2.5   -2.0
H    -3.2    3.0    4.2
H    -0.4   -4.0    4.6
I     2.9   -0.2   -5.4
N     5.1    2.7   -2.3
H    -5.0   -3.3    1.7
C    -4.2    2.7   -3.8
H    -4.4    1.7    4.2
H     0.8    6.3   -0.2
H    -0.3   -4.6   -4.3
H     5.7    1.9   -2.0
H    -4.5    1.7   -4.2
H     1.1   -6.1   -2.1
H     5.4   -3.6   -0.5
H     4.8    1.7   -4.2
H    -0.0    6.5    1.4
I    -2.9   -5.8   -1.3
H     4.9    1.7    4.2
C     0.5   -5.3   -4.0
C    -4.2    2.7    4.5
H     5.4    3.6   -2.0
H     1.5   -5.1   -4.3
I    -3.2    5.9   -1.4
H     4.4    3.4    4.2
C     5.1    2.7   -3.8
H     6.1   -3.0    1.7
H     4.4    3.5   -4.2
I    -6.5   -0.0    2.9
H     1.6   -5.4    4.4
N    -0.1   -4.7    5.3
H    -5.0    3.4    4.2
H     0.5   -4.1    6.0
H    -4.9    3.5   -4.2
C     5.1    2.7    4.5
H     0.1   -6.3    4.0
I     7.3   -0.0   -1.3
I    -2.0    0.2    7.2
H    -3.2   -2.4   -6.3
C     0.7   -5.8    4.8
I     3.7    5.9    2.8
P     0.5    0.1   -7.6
I     1.5   -2.1    7.2
H    -3.6    2.0    6.4
I     3.9   -5.9    2.8
I     1.8    2.1    7.2
H     0.2   -6.3   -4.3
H     0.1    4.5   -6.3
H    -1.0   -5.1    5.9
N    -4.2    2.7    6.0
I    -7.6    2.0   -1.2
H     4.5   -1.9   -6.3
H     6.1    3.0   -4.2
H     6.1    3.0    4.2
H     4.1    2.5    6.4
I    -7.7   -2.2   -1.3
H    -4.9   -1.9   -6.3
H    -3.9    3.6    6.4
N    -4.2   -2.6   -6.7
N     5.1    2.7    6.0
I     2.7   -7.8   -1.4
I    -6.4   -0.2   -5.4
I    -5.4   -5.9    2.8
H    -4.5   -3.6   -6.3
H     1.3    5.6   -6.3
N     0.4    5.4   -6.7
H     0.9   -6.5    5.5
I    -5.6    5.9    2.8
I     6.1    5.9   -1.4
H    -5.2    2.5    6.4
H     4.8   -3.6   -6.3
I    -1.9    8.0    2.8
I    -1.8   -8.1    2.8
I     2.6    8.3   -1.4
I     6.4   -5.8   -1.3
H    -0.3    6.2   -6.3
N     5.1   -2.6   -6.7
H     5.7    2.0    6.4
P    -8.9   -0.1    0.9
I     3.7    6.0   -5.5
I     4.1   -5.8   -5.5
H    -8.1    4.0    0.4
P    -4.2   -8.0    0.8
H     6.1   -2.4   -6.3
H     5.4    3.6    6.4
P    -4.3    8.1    0.8
H    -7.6    5.0    1.7
P     0.4    0.0    9.2
I     8.5   -2.1    3.0
I     8.6    2.1    2.9
H    -4.0   -1.6    8.3
P    -8.9    0.0   -3.4
P     5.1   -8.0    0.8
P     5.0    8.1    0.8
I    -5.2   -5.8   -5.5
H    -3.5   -3.3    8.3
H    -4.0   -1.6   -8.5
C    -4.2   -2.6   -8.2
H     1.1    4.8    8.3
H     0.1   -9.5    1.4
P    -4.2   -8.0   -3.5
N    -8.4    4.7    1.1
I    -2.9   -5.9    7.1
H     4.1   -3.0    8.3
I    -3.2    5.9    7.1
H    -0.6    5.1    8.3
P     9.7   -0.1    0.9
P    -4.3    8.1   -3.5
C     0.4    5.4   -8.1
H    -3.5   -3.3   -8.5
H     1.1    4.8   -8.5
H     0.9   -9.8   -0.2
I    -1.9    7.9   -5.5
H    -8.5   -4.4   -2.1
I    -2.0    0.2   -9.7
H     4.1   -3.0   -8.5
H    -0.6    5.1   -8.5
H     5.3   -1.6    8.3
I    -5.7    6.0   -5.5
C    -4.2   -2.6    8.6
C     5.1   -2.6   -8.2
I    -1.7   -8.1   -5.5
I     1.5   -2.1   -9.7
I     1.8    2.1   -9.6
H    -9.0    4.1    1.8
P     5.1   -8.0   -3.5
P     5.0    8.1   -3.5
H     8.6    5.4    0.1
H     5.3   -1.6   -8.5
I     8.4   -2.0   -5.5
P    -8.9    0.1    5.0
C     0.4    5.4    8.7
H     0.9   10.0   -2.1
H    -5.2   -3.0    8.3
I     7.3    0.2    7.2
C     0.3  -10.2    0.6
H    -7.8   -5.1   -4.3
I    -6.6   -7.8   -1.4
P     9.8    0.0   -3.4
P    -4.2   -8.1    5.0
C     5.1   -2.6    8.6
P    -4.3    8.0    5.0
H    -7.7   -5.4    4.4
H    -5.2   -3.0   -8.5
H    -8.2   -6.1   -2.1
I     8.7    2.2   -5.4
H     0.5    6.4    8.3
H    -0.1    9.8    4.0
I    -7.5    2.1    7.2
H    -8.5    6.3   -0.2
H     8.8   -5.5   -2.1
H     0.1    9.7   -4.3
N    -8.9   -5.3   -2.5
H    -0.6  -10.6    0.1
P     5.0    8.0    5.0
H     9.7    4.1    1.8
H     5.8   -3.3    8.3
I   -10.1    2.1    2.9
I    -3.1  -10.1   -1.4
H     0.5    6.5   -8.5
I    -3.0   10.2   -1.3
I    -6.7    8.3   -1.4
P     5.1   -8.1    5.0
I   -10.1   -2.1    3.0
H     8.9   -4.0    4.6
H    -0.6   10.6   -2.1
I    -7.8   -2.1    7.2
C    -9.1    5.8    0.6
H     5.8   -3.3   -8.5
P     9.8    0.1    5.0
N     0.3   10.7   -2.5
I     2.6    8.1    7.1
I     2.7   -8.0    7.1
H     0.7    9.5    5.5
H     9.1   -4.6   -4.3
C    -8.8   -5.3   -4.0
I     6.2    5.9    7.1
C     9.5    5.8    0.6
H    -3.6    2.0  -10.4
I     3.8   10.1    2.8
I     3.9  -10.1    2.8
I     6.4   -5.9    7.1
H    10.1   -4.4   -2.1
H    -3.3   -2.4   10.5
I     7.4    8.0    2.8
I    11.0   -2.2   -1.3
N    -4.2   -2.6   10.1
I    11.1    2.0   -1.2
H    10.6    4.0    0.4
C     0.5   10.3    4.8
N    10.3    4.7    1.1
H     1.9  -11.1    1.7
H     8.4   -5.1    5.9
I     7.5   -8.1    2.8
I   -11.3   -0.0   -1.3
N     9.8   -5.3   -2.5
H     9.3    6.5    1.4
C     0.3   10.7   -4.0
H   -10.1    5.4    0.1
C    -8.6   -5.8    4.8
H     0.1    4.5   10.5
H    -9.8   -5.5   -2.1
H    -9.4    6.5    1.4
H    -9.6   -4.6   -4.3
H     4.1    2.5  -10.4
H    -8.9   -4.1    6.0
N     1.1  -11.4    1.1
N     0.4    5.4   10.2
H    -9.8   -4.0    4.6
I    -9.9    2.2   -5.4
H     0.5   -4.1  -10.8
I    -1.0   -2.0   11.4
H     4.5   -1.9   10.5
I    -0.6    2.2   11.4
H    -8.0    5.6   -6.3
N     9.2   -4.7    5.3
H     1.5   10.7    4.4
N     5.1   -2.6   10.1
P    -8.9    0.1   -7.6
H    -3.9    3.6  -10.4
H    -0.1   -9.9   -6.3
H    -4.9   -1.9   10.5
I     2.9   -0.2   11.4
P     0.5    0.1  -11.8
I   -10.3   -2.0   -5.5
I    -2.9   -5.9   -9.8
I    -3.1    5.9   -9.7
N    -9.4   -4.7    5.3
P    -4.2   -8.0   -7.7
H    -9.2   -6.3    4.0
C     9.8   -5.3   -4.0
I    -5.4  -10.1    2.8
H     0.7   11.6   -2.1
I    -5.5   10.1    2.8
H     1.3   11.0   -4.3
N    -4.2    2.7  -10.8
H    -9.1   -6.3   -4.3
H    -5.2    2.5  -10.4
H    10.1    6.3   -0.2
P    -4.3    8.1   -7.7
I     6.2  -10.1   -1.4
H     9.4   -6.3    4.0
H    -4.5   -3.6   10.5
H     1.3    5.6   10.5
H    -8.4   -6.5    5.5
H     5.7    2.0  -10.4
I     3.8  -10.0   -5.5
H    -9.3    4.5   -6.3
H     4.8   -3.6   10.5
I     6.3   10.2   -1.3
H     0.5  -11.9    1.8
H    -0.9   -5.0  -11.0
H     1.4  -12.0    0.4
I     7.4    0.2   -9.7
H     9.4    4.5   -6.3
I     7.4    7.9   -5.5
H    -0.3    6.1   10.5
H     9.8   -4.1    6.0
P     5.0    8.1   -7.7
P     5.2   -8.0   -7.7
H    10.4   -6.1   -2.1
N     5.1    2.7  -10.8
H    -0.4   11.4   -4.3
H     9.5   -6.3   -4.3
H     1.5  -10.4   -6.3
H    11.1    5.0    1.7
H     5.4    3.6  -10.4
I     3.9   10.3   -5.5
H     6.1   -2.4   10.5
P     9.8    0.1   -7.6
N    -0.1   -4.7  -11.5
I    -7.5    2.1   -9.6
N    -9.0    5.4   -6.7
I     7.6   -8.1   -5.5
C    10.0   -5.8    4.8
I    12.2   -0.0    2.9
H    -1.1   11.0    5.9
I    -6.6   -8.0    7.1
N     0.5  -10.6   -6.7
N    -0.3   11.4    5.3
H    -8.2    4.8    8.3
I    -7.8   -2.1   -9.7
H     9.0    6.2   -6.3
I    -6.7    8.1    7.1
H    10.8   -5.1   -4.3
I    -5.5  -10.0   -5.5
I    -3.0   10.1    7.1
H    -8.2    4.8   -8.5
H     0.7   -9.6    8.3
I    -3.0  -10.2    7.1
P    -8.9    0.0    9.2
H     0.7   -9.6   -8.5
I    -5.4   10.3   -5.5
P    -4.2   -8.0    9.1
H   -10.3   -5.1    5.9
H    -0.4   -4.0  -12.2
H    -8.4   -9.8   -0.2
H    -0.6   12.0    4.6
I     2.8   -8.0   -9.7
I     2.6    8.1   -9.7
H    10.9   -5.4    4.4
P    -4.3    8.1    9.1
I     6.2    5.9   -9.7
N     9.7    5.4   -6.7
H    -9.6    6.2   -6.3
H   -12.6   -3.0    1.7
H     0.9   -6.5  -11.3
H     8.7    5.1    8.3
I    -6.4   -0.2   11.4
H   -12.9   -1.9   -0.6
H    -4.0   12.5   -0.5
I     6.4   -5.9   -9.8
I    10.8   -2.1    7.2
H     0.2  -11.6   -6.3
H    -3.8  -12.5   -2.0
P     5.0    8.1    9.1
H     8.7    5.1   -8.5
H   -12.9    1.9   -2.0
H    -8.4   10.0   -2.1
P     5.1   -8.0    9.1
C    -4.2    2.7  -12.3
C    -9.0    5.4   -8.1
H    -0.3   -4.6   12.5
I     3.6    6.0   11.3
H    10.2   -6.5    5.5
I     4.1   -5.8   11.3
H    -9.2   -9.5    1.4
H    -3.2    3.0  -12.6
I    12.2   -0.2   -5.4
H     0.3   11.9    6.0
H    -3.2    3.0   12.6
I   -11.3    0.2    7.2
C     0.7   -5.8  -12.1
I    11.1    2.1    7.2
C     0.5  -10.6   -8.1
H    -7.4  -11.1    1.7
P     0.4    0.0   13.4
P     9.8    0.0    9.2
H    -4.4    1.7  -12.6
H     9.4   -9.5    1.4
H    -4.5    1.7   12.6
H     4.2   12.7    1.7
H     5.3   12.5   -0.5
H   -12.5    3.0    4.2
H   -12.5    3.0   -4.2
C     5.1    2.7  -12.3
H     1.5   -5.1   12.5
H    10.6    5.6   -6.3
H     4.8    1.7   12.6
H    -3.4   13.1    1.7
C    -9.0    5.4    8.7
I   -12.2   -5.8   -1.3
H     4.9    1.7  -12.6
C    -9.0  -10.2    0.6
H     1.6   -5.4  -12.5
H   -13.2   -3.6   -0.5
H    13.4   -2.5   -0.6
H    -8.8    6.4    8.3
C     0.5  -10.6    8.7
I    -5.2   -5.8   11.3
H     8.7  -10.6    0.1
C     9.7    5.4   -8.1
H    -0.5  -11.0    8.3
