         400
 sphere cut out from bulk 
H     0.9   -0.2    0.3
N     1.8    0.1    0.8
I    -0.3   -1.4   -1.8
H     2.2    1.0    0.3
H     2.5   -0.7    0.6
C     1.6    0.3    2.2
H     0.9    1.1    2.4
I    -2.2    0.7    1.6
H     1.2   -0.6    2.6
P    -2.8    0.6   -1.5
I    -0.8    3.1   -1.8
H     1.0    0.7   -3.5
H     2.6    0.5    2.7
I     1.1   -3.8    1.7
I     3.6    2.6   -1.1
H    -2.0   -3.4    2.3
P     1.6   -4.0   -1.5
I     4.2   -2.0   -1.1
C     1.0    0.6   -4.6
H    -2.1    4.3    0.2
H    -3.4   -3.6    0.3
H     1.1   -0.4   -4.9
H     0.1    1.1   -5.0
H    -2.2    3.9    2.6
H    -2.1   -4.7    0.2
I    -4.8   -2.0   -1.1
H    -3.6    3.9    0.6
N    -3.0   -4.4    0.7
I    -0.3   -1.4    5.3
C    -2.7   -4.2    2.2
N    -2.9    4.6    0.7
P    -2.7    0.6    4.8
P     1.7    5.1   -1.5
H    -3.0   -2.5   -4.0
I     1.2    5.3    1.7
N     2.2    1.4   -5.1
I    -3.3    0.5   -4.7
H     3.1    1.0   -4.8
H     2.1    2.4   -4.8
H    -1.5   -2.9   -4.8
C    -2.6    4.8    2.2
H    -2.2   -4.1   -3.7
I    -5.3    2.6   -1.1
H    -3.6   -4.0    2.7
C    -2.4   -3.3   -4.4
H    -2.2   -5.2    2.6
I    -0.8    3.2    5.3
I    -0.9   -5.9   -1.8
P     6.1    0.6   -1.5
I     3.7    2.6    4.5
P     1.6   -3.9    4.8
H    -1.9    5.7    2.3
H    -3.7   -5.2    0.6
H    -3.3    5.5    0.3
I     4.2   -2.0    4.6
H    -6.4   -0.7    0.6
H    -2.2    5.0   -3.7
H     5.3    3.9    0.6
H     5.5   -3.6    0.3
I     2.2   -4.2   -4.7
H     2.2    1.4   -6.2
H    -3.5    5.1    2.7
H    -6.7    1.0    0.3
I    -4.7   -2.0    4.6
H    -6.3    0.5    2.7
I     6.7    0.7    1.6
H     2.3    1.4    6.6
N    -7.1    0.1    0.8
I     2.3    4.9   -4.7
H     5.3   -4.0    2.7
P     1.7    5.2    4.8
I     5.6    0.5   -4.7
I    -5.2    2.6    4.5
H     5.2   -5.2    0.6
N     5.9   -4.4    0.7
I     3.6   -6.5   -1.1
N    -3.2   -3.9   -5.6
H     5.9   -2.5   -4.0
N     6.0    4.6    0.7
H    -5.8    1.0   -4.8
I    -0.4   -1.4   -7.5
C    -7.3    0.3    2.2
C    -2.4    5.8   -4.4
H     0.1    1.1    7.7
H    -3.4   -3.2   -6.3
P     6.2    0.6    4.8
H     5.6    5.5    0.3
H     5.4    5.1    2.7
C     6.2   -4.2    2.2
I    -0.2    7.6   -1.8
H    -4.1   -4.2   -5.2
H     1.2   -0.4    7.8
H    -2.6    4.4   -6.0
H    -3.4   -3.2    6.5
H    -1.4    6.2   -4.8
I    -0.9   -5.9    5.3
H    -8.0   -0.2    0.3
N     2.2    1.4    7.6
H     6.9   -3.4    2.3
H    -2.7   -4.6   -6.0
H     6.8    4.3    0.2
I    -0.9    3.1   -7.5
H    -7.7   -0.6    2.6
H    -4.1    4.8   -5.2
H     6.7    3.9    2.6
C     1.1    0.6    8.1
C     6.3    4.8    2.2
H    -2.9    6.6   -4.0
N    -3.1    5.2   -5.6
H     4.8   -4.2   -5.2
H     6.8   -4.7    0.2
I     4.2    7.1   -1.1
H     0.8   -8.0    2.4
H     2.1   -8.1    0.3
H    -8.0    1.1    2.4
H    -2.5    4.4    6.7
P    -7.3   -4.0   -1.5
P    -2.8    0.6   -8.0
I    -5.3   -6.5   -1.1
H     2.1   -6.7   -4.8
C     6.5   -3.3   -4.4
H     2.2    2.4    7.9
H    -1.4   -2.9    7.9
H    -2.6   -4.6    6.7
I    -4.7    7.1   -1.1
N    -6.7    1.4   -5.1
H     3.1    1.0    7.9
H     4.8    4.8   -5.2
H    -6.8    2.4   -4.8
H     6.7   -4.1   -3.7
I     3.6   -6.5    4.5
H    -7.9    0.7   -3.5
I    -3.3    0.5    8.1
N    -3.1   -3.9    7.2
H     2.5    8.4    0.6
H     6.7   -5.2    2.6
I    -7.8   -3.8    1.7
I    -2.3   -8.4    1.6
I     8.1    3.1   -1.8
N     5.7   -3.9   -5.6
H     5.5   -3.2   -6.3
I     8.6   -1.4   -1.8
H     1.2    8.4    2.6
P    -7.2    5.1   -1.5
H     1.0    8.9    0.3
P     1.6   -3.9   -8.0
H     5.5   -3.2    6.5
P    -2.8   -8.5   -1.5
H     0.9   -8.4   -3.5
I    -6.7   -4.2   -4.7
H     6.7    5.0   -3.7
N     1.7   -9.0    0.8
C    -7.9    0.6   -4.6
C     1.5   -8.8    2.2
H    -6.7    1.4   -6.2
H    -7.8   -0.4   -4.9
C    -2.4   -3.3    8.3
H    -3.4    5.9   -6.3
H     0.8   -9.2    0.3
H     7.0    5.7    2.3
I    -0.2    7.7    5.3
H     1.1    0.7    9.2
H     7.4   -2.9   -4.8
H     2.5   -8.6    2.7
I     3.6    2.6   -8.2
I     2.3   -4.2    8.1
H    -3.3    5.9    6.5
I     4.1   -2.0   -8.2
N    -3.1    5.2    7.2
N     1.9    9.2    0.8
H    -6.6    1.4    6.6
I     4.3    7.1    4.6
H     0.0   -8.0   -5.0
I    -7.7    5.3    1.7
I    -6.6    4.9   -4.7
N     2.1   -7.7   -5.1
I    -9.2   -1.4   -1.8
I    -5.3   -6.5    4.5
H    -4.1   -4.2    7.5
N     5.8    5.2   -5.6
P    -7.3   -3.9    4.8
I    -0.9   -5.9   -7.5
H    -3.0   -2.5    8.8
P     1.6    5.2   -8.0
I    -4.6    7.1    4.6
I    -4.8   -2.0   -8.2
C     0.9   -8.5   -4.6
H     6.0    6.6   -4.0
I     2.3    4.9    8.1
C     1.7    9.4    2.2
H    -4.0    4.8    7.5
H     6.3    4.4   -6.0
C     6.5    5.8   -4.4
H     9.8   -0.2    0.3
I     5.6    0.5    8.1
H     6.2   -4.6   -6.0
H    -5.8    1.0    7.9
H     3.0   -8.1   -4.8
H     4.8   -4.2    7.5
N     5.8   -3.9    7.2
H     1.2    8.7   -4.9
H     2.4   -9.7    0.6
P     6.1    0.6   -8.0
P    -7.2    5.2    4.8
H     2.1   -7.7   -6.2
H    -1.4    6.2    7.9
I    -5.3    2.6   -8.2
P    -2.7    9.6   -1.5
H     1.1   -9.7    2.6
I     8.0   -5.9   -1.8
P    -2.8   -8.5    4.8
H    -2.2   -4.1    9.0
I    -2.2    9.8    1.6
I     8.1    3.2    5.3
H     9.8    1.1    2.4
H     1.1   -0.6  -10.1
I     8.6   -1.4    5.3
H     4.9    4.8    7.5
H    -8.8    1.1   -5.0
N    -6.7    1.4    7.6
H     5.5    5.9   -6.3
H     6.4    4.4    6.7
H     2.6    9.6    2.7
H     2.2   10.0    0.3
H     6.3   -4.6    6.7
H     2.2   -7.7    6.6
I    -3.4   -8.6   -4.7
H     9.0    1.1   -5.0
C    -2.3    5.8    8.3
H     2.5    0.5  -10.1
I    -9.7    3.1   -1.8
H     5.6    5.9    6.5
H    10.1   -0.6    2.6
H     0.9    1.1  -10.3
H     1.1    9.8   -3.5
H     1.0   10.2    2.4
H    -2.1    5.0    9.0
H     9.9    0.7   -3.5
H     2.1   -6.7    7.9
P     6.1   -8.5   -1.5
H    -6.4    8.4    0.6
H    -6.8   -8.1    0.3
N     5.8    5.2    7.2
C     1.5    0.3  -10.5
H    -6.7    2.4    7.9
I    -0.4  -10.5   -1.8
I    -9.2   -1.4    5.3
I    -0.3    7.7   -7.5
N    10.7    0.1    0.8
H    -6.8   -6.7   -4.8
C    10.5    0.3    2.2
H     1.0   -9.5   -4.9
I     6.6   -8.4    1.6
C     1.1    9.7   -4.6
H     7.5    6.2   -4.8
I    10.0   -3.8    1.7
H     5.9   -2.5    8.8
C     9.9    0.6   -4.6
I    -0.2   -1.4   10.9
H    -7.7   -0.4    7.8
N     2.2   -7.7    7.6
H    -6.4   -8.6    2.7
I     3.5   -6.5   -8.2
C     6.5   -3.3    8.3
H    -5.9   -8.1   -4.8
P    -2.7    9.7    4.8
H    -2.2    3.9  -10.2
H     0.1   -8.0    7.7
H    11.1    1.0    0.3
I    -3.3    9.6   -4.7
H    10.0   -0.4   -4.9
H    -2.0   -3.4  -10.5
I     5.5   -8.6   -4.7
I    -6.6   -4.2    8.1
H     7.5   -2.9    7.9
I   -11.1    0.7    1.6
I     8.0   -5.9    5.3
C    -7.8    0.6    8.1
H     0.1   10.1   -5.0
H    -2.9    6.6    8.8
I    -2.3    0.7  -11.1
P    10.5   -4.0   -1.5
I    -0.8    3.1   10.9
H    11.4   -0.7    0.6
I     8.0    3.1   -7.5
H    -3.7   -4.0  -10.0
I     8.5   -1.4   -7.5
N    -6.8   -7.7   -5.1
I    10.1    5.3    1.7
I    -9.7    3.2    5.3
I    -6.6    4.9    8.1
P     6.1   -8.5    4.8
N    -7.2   -9.0    0.8
P    -7.3   -3.9   -8.0
P     6.2    9.6   -1.5
P    -2.7    0.6   11.2
H    -8.1   -8.0    2.4
N    -7.0    9.2    0.8
H     3.1   10.1   -4.8
I    -9.8   -5.9   -1.8
H   -10.9   -3.4    2.3
H    -2.3   -5.2  -10.2
I     4.2    7.1   -8.2
C    -7.4   -8.8    2.2
C    -2.7   -4.3  -10.6
H    -7.7    8.4    2.6
I     8.7    7.6   -1.8
H    -8.8    1.1    7.7
H    -6.5   -9.7    0.6
H     3.1   -8.1    7.9
H     1.2    8.7    7.8
I    -0.4  -10.5    5.3
H    -6.3    9.6    2.7
C     1.0   -8.4    8.1
I    -5.4   -6.5   -8.2
I     1.1   -3.8  -11.1
H    11.5    0.5    2.7
P   -11.7    0.6   -1.5
H   -11.0    4.3    0.2
H    -3.6    5.1  -10.0
H   -10.4   -2.9   -4.8
I    -4.7    7.1   -8.2
I     4.1  -11.1   -1.1
P    10.6    5.1   -1.5
N     2.2   10.5   -5.1
C    -2.7    4.8  -10.6
H    -6.4    0.5  -10.1
H     9.0    1.1    7.7
H    -7.9    8.9    0.3
H    -6.8   -7.7   -6.2
P    -7.3    5.2   -8.0
I    -9.3   -1.4   -7.5
H     6.7   -4.1    9.0
P    -2.9   -8.5   -8.0
I     6.7    9.8    1.6
H   -11.0   -4.7    0.2
H     5.2   -4.0  -10.0
H   -11.1    3.9    2.6
P     1.7   -4.0   11.2
C    -7.2    9.4    2.2
H    -2.0    5.7  -10.5
I     5.6    9.6   -4.7
H    -6.7   10.0    0.3
I    -9.1    7.6   -1.8
C     6.6    5.8    8.3
H    -8.0   -8.4   -3.5
N     1.7    0.1  -12.0
I    -4.8  -11.1   -1.1
H    -7.8    0.7    9.2
H    -6.7   -7.7    6.6
P    10.5   -3.9    4.8
I    -3.3   -8.6    8.1
I     3.7   11.6   -1.1
H    -8.1   -9.2    0.3
H    11.0    2.4   -4.8
N    11.1    1.4   -5.1
I     1.1    5.2  -11.1
H     1.1   -9.5    7.8
H     6.8    5.0    9.0
H     2.3   10.5   -6.2
H    -6.8   -6.7    7.9
I    -0.8   12.2   -1.8
H   -10.8    5.7    2.3
H   -11.1   -4.1   -3.7
I     8.0   -5.9   -7.5
H     5.3    5.1  -10.0
H     2.4   -0.7  -12.2
I    -0.8   -5.9   10.9
P     1.7    5.1   11.2
P     6.2    9.7    4.8
H     0.8   -0.2  -12.4
H     1.0   -8.4    9.2
H     6.0    6.6    8.8
C    -8.0   -8.5   -4.6
I     3.7    2.6   11.7
C   -11.6   -4.2    2.2
H   -11.1   -5.2    2.6
H     7.5    6.2    7.9
I     4.2   -2.0   11.7
H    -5.8   10.1   -4.8
H     2.3   10.5    6.6
P   -11.6    0.6    4.8
I    -9.8   -5.9    5.3
C   -11.3   -3.3   -4.4
H    -7.7    8.7   -4.9
I     4.1  -11.0    4.6
H    -3.1  -11.6   -4.0
H     2.2   11.5   -4.8
H     2.1    1.0  -12.4
C   -11.5    4.8    2.2
H   -11.1    5.0   -3.7
I    -9.8    3.1   -7.5
N   -11.9   -4.4    0.7
C     1.1    9.7    8.1
I     8.7    7.7    5.3
N   -11.8    4.6    0.7
P    10.6    5.2    4.8
H    -5.8   -8.1    7.9
H    -7.8   -9.7    2.6
I    -4.7   -2.0   11.7
