         400
 sphere cut out from bulk 
I     1.7   -0.6   -0.6
H     0.2   -1.7    1.1
P    -0.2    2.0   -0.8
I    -2.8    0.1   -0.8
N    -0.4   -2.3    1.7
H    -1.2   -1.7    2.1
I    -0.4    2.0    2.5
H    -0.9   -3.0    1.0
H    -0.8   -1.5   -3.0
H     2.9    1.9    2.0
H     0.3   -2.8   -2.9
C     0.3   -3.0    2.8
C    -0.1   -2.1   -3.6
H     0.8   -2.3    3.4
H    -3.8    1.1    1.3
H     0.7   -1.4   -4.0
H    -3.1    1.6    2.7
I    -0.2    2.0   -3.9
H     1.1   -3.6    2.3
I     2.4    3.9   -0.6
H     3.5    1.3   -2.9
N    -4.0    1.3    2.3
I    -2.0   -4.3   -0.7
H    -0.4   -3.6    3.3
P     4.3   -2.5   -0.8
H    -4.3    0.4    2.7
C     3.9    2.3    2.5
I    -2.1    4.6   -0.7
P    -4.7   -2.5   -0.8
H     5.1    1.1    1.3
H     4.7    0.4    2.7
N    -0.8   -2.7   -4.7
H    -3.9    1.1   -3.7
I     4.4   -2.3    2.5
N     4.9    1.3    2.3
I     2.4   -5.1   -0.6
H     3.7    2.4    3.6
H     4.2    3.2    2.1
I    -4.5   -2.3    2.5
H    -1.6   -3.3   -4.4
H    -4.2    2.6   -2.9
C     4.3    1.8   -3.4
H    -1.2   -2.0   -5.3
H     1.1    5.4    2.3
P    -0.2    2.0    5.7
I     1.7   -0.6    5.8
C    -4.6    1.8   -3.4
H     2.9    3.0   -4.4
C    -5.1    2.3    2.5
H     4.7    2.6   -2.9
H    -4.8    3.2    2.1
H    -0.9    6.0    1.0
H    -0.2   -3.3   -5.3
I     6.2    0.1   -0.8
H    -5.4    1.3   -2.9
I     4.2   -2.5   -3.9
H    -0.4    5.3    3.3
H     3.2    1.6   -5.3
N     3.7    2.4   -4.7
H     5.1    1.1   -3.7
I    -2.9    0.2    5.8
C     0.3    6.0    2.8
H     5.8    1.6    2.7
H    -6.0    1.9    2.0
I    -4.7   -2.5   -3.9
H    -5.3    2.4    3.6
H     0.3    6.1   -2.9
N    -0.5    6.7    1.7
P    -0.2   -6.9   -0.8
I     2.4    3.9    5.7
I    -7.3   -0.6   -0.6
H    -1.6    5.6   -4.4
H     0.2    7.3    1.1
P    -0.4    2.0   -7.1
H     4.2   -5.7    2.1
H     4.4    2.9   -5.3
I     2.2    0.2   -7.1
N    -5.3    2.4   -4.7
I    -2.0   -4.3    5.8
I    -0.4   -7.0    2.5
H    -4.6    2.9   -5.3
I    -2.3   -0.6   -7.2
H     0.7    6.7    3.4
P     4.3   -2.5    5.7
H    -1.2    7.3    2.1
I    -2.0    4.7    5.8
I    -6.6    3.9   -0.6
H    -4.7   -5.7    2.1
H     0.1   -1.6    7.6
P     4.2    6.5   -0.8
H    -0.2    5.7   -5.3
P    -4.6   -2.5    5.7
C    -0.2    6.9   -3.6
N    -0.9    6.3   -4.7
H     3.0   -7.1    2.0
H    -5.7    1.6   -5.3
H     3.0   -6.0   -4.4
I     2.4   -5.1    5.7
I    -0.2   -7.0   -3.9
P    -4.7    6.5   -0.8
H    -6.0    3.0   -4.4
H    -4.2   -6.3   -2.9
H    -0.9    7.5   -3.0
C     3.9   -6.7    2.5
H    -1.0   -2.9    7.6
I     6.9   -4.3   -0.7
H     7.8   -1.7    2.1
I    -6.5   -5.1   -0.6
I     6.9    4.6   -0.7
I     1.4   -4.3   -7.0
I     4.4    6.7    2.5
H     3.7   -6.6    3.6
I     6.1    0.2    5.8
H     4.8   -6.3   -2.9
N    -0.6   -2.1    8.2
H    -3.1   -7.4    2.7
I    -4.6    6.7    2.5
I     1.4    4.7   -7.0
H     0.6    7.6   -4.0
P     4.1   -2.5   -7.1
I     1.6    8.4   -0.6
I    -3.0    3.9   -7.0
H     3.4    2.5    7.5
I     4.2    6.4   -3.9
H    -1.3   -1.5    8.4
H     8.1   -3.0    1.0
C    -5.0   -6.7    2.5
H     8.1   -1.5   -3.0
H    -3.8   -7.9    1.3
H    -4.5    1.2    7.6
H    -1.3    7.0   -5.3
H     4.5    1.2    7.6
N     3.7   -6.6   -4.7
H    -7.8   -3.6    2.3
I    -4.8    6.4   -3.9
H     3.6   -7.7   -2.9
N    -4.0   -7.7    2.3
H    -8.7   -1.7    1.1
N     8.5   -2.3    1.7
P    -0.2   -7.0    5.7
P    -4.9   -2.5   -7.1
P     8.7    2.0   -0.8
C     4.3   -7.2   -3.4
H     3.1    1.2    8.5
I     8.5    2.0    2.5
I    -0.1    2.0    8.9
H    -5.2   -6.6    3.6
H    -8.2   -2.3    3.4
N     3.8    1.8    8.2
H     7.4   -3.3   -4.4
C    -4.6   -7.2   -3.4
H     4.4   -6.1   -5.3
I    -3.0   -5.1   -7.0
H    -4.5   -6.1   -5.3
H    -8.3   -1.4   -4.0
I    -7.3   -0.6    5.8
I    -2.7   -8.9   -0.8
H     9.2   -1.7    1.1
P    -9.1    2.0   -0.8
H    -6.0   -7.1    2.0
N     5.0   -7.7    2.3
H     5.2   -7.9    1.3
I    -6.5    3.9    5.7
H    -3.8   -7.9   -3.7
I    -2.8    9.1   -0.8
C    -8.6   -3.0    2.8
H    -8.6   -2.8   -2.9
H    -6.0   -6.0   -4.4
H    -1.0   -2.1   -9.3
H     7.7   -2.0   -5.3
P     4.3    6.5    5.7
H     3.3   -7.4   -5.3
N    -5.2   -6.6   -4.7
H    -5.5    2.5    7.5
H     0.8   -3.4    9.1
I     1.7   -9.6   -0.6
C     8.8   -2.1   -3.6
I    -6.7    0.2   -7.1
C     0.1   -2.7    9.4
N     8.1   -2.7   -4.7
I     8.7    2.0   -3.9
N    -5.1    1.8    8.2
H    -1.0    6.1    7.6
N    -9.4   -2.3    1.7
H    -7.9    5.4    2.3
H    -5.4   -7.7   -2.9
P    -4.7    6.5    5.7
I     6.7   -0.6   -7.2
H     5.9   -7.4    2.7
I    -9.4    2.0    2.5
H     8.6   -3.6    3.3
C    -9.1   -2.1   -3.6
I     5.9    3.9   -7.0
H    -4.2   -8.6    2.7
I     7.0   -4.3    5.8
P    -0.4   -7.0   -7.1
I    -6.5   -5.1    5.7
H    -3.6    3.1    8.9
H     8.0    6.0    1.0
H     5.1   -7.9   -3.7
I     6.9    4.7    5.8
H     9.3   -2.8   -2.9
C     9.3   -3.0    2.8
H     0.5   -1.8   10.0
I    -9.2    2.0   -3.9
H     4.7   -8.6    2.7
H     7.3    5.6   -4.4
I    -4.5   -2.5    8.9
I     4.5   -2.5    8.9
I     1.6    8.4    5.8
H     3.9    0.8   -9.5
H    -9.8   -3.0    1.0
H    -9.8   -1.5   -3.0
H    -5.9    1.2    8.5
H    -3.9    2.2   -9.4
H   -10.1   -1.7    2.1
P     4.0    6.5   -7.1
H    -0.7   -3.2   10.0
H     9.6   -1.4   -4.0
H     3.5   -6.5    7.5
H    -9.3   -3.6    3.3
I     5.9   -5.1   -7.0
C    -4.4    2.4    9.3
I    -0.3    2.2  -10.3
H     0.1    7.4    7.6
H     9.7   -2.3    3.4
H     8.5    5.3    3.3
P     8.7    2.0    5.7
C    -0.8   -2.2  -10.4
C     4.6    2.4    9.3
H     1.2   -2.9  -10.1
H    -4.3    9.4    2.7
I    10.6   -0.6   -0.6
H    -5.7   -7.4   -5.3
N    -0.6    6.9    8.2
H     0.8    5.6    9.1
H     8.8   -3.3   -5.3
H     4.6    9.4    2.7
H     0.3  -10.7    1.1
H     5.3    3.1    8.9
H    -4.0    1.7    9.9
H    -5.1    0.8   -9.5
H     7.7    7.3    2.1
P    -4.9    6.5   -7.1
H    -0.5   -1.3  -10.8
C    -8.7    6.0    2.8
I     6.2   -8.9   -0.8
H     5.0    2.2   -9.4
H    -0.8  -10.5   -3.0
H    -3.9   10.1    1.3
I    -2.8   -8.8    5.8
N     8.5    6.7    1.7
H    10.0   -3.6    2.3
H    -1.1  -10.7    2.1
I     6.1    9.1   -0.8
H     0.0   -4.1  -10.2
H     3.8    3.0    9.8
P    -9.2    2.0    5.7
H    -8.7    6.1   -2.9
H    -9.1   -3.3   -5.3
N     0.3   -3.2  -10.6
P    -0.2   11.0   -0.8
C    -4.4    1.5  -10.1
H    -8.2    6.7    3.4
I    -7.5   -4.3   -7.0
I    -7.3    8.4   -0.6
C     4.6    1.5  -10.1
N    -9.8   -2.7   -4.7
H     0.7  -10.4   -4.0
H    -3.6    0.8  -10.6
H     5.0    1.7    9.9
P     8.8   -6.9   -0.8
H     3.5   10.3   -2.9
H    -3.6   -5.9    8.9
I    -0.5   11.0    2.5
N     8.1    6.3   -4.7
I    -2.9    9.2    5.8
H    -1.7   -2.6  -10.8
H    -0.0    4.9  -10.2
H    -9.4    5.3    3.3
I    -2.3    8.4   -7.2
N    -4.1   10.3    2.3
P     8.5    2.0   -7.1
C     0.0    6.3    9.4
I     3.9   -2.5  -10.3
I    -7.6    4.7   -7.0
C     9.2    6.0    2.8
I    -0.0   -7.0    8.9
H     8.0   -2.9    7.6
I     1.7   -9.6    5.8
H    -5.5   -6.5    7.5
H    -3.2   10.6    2.7
H    -1.4    7.5    8.4
I     8.6   -7.0    2.5
H     5.1   10.1    1.3
H     8.1    7.5   -3.0
H     7.6   -1.5    8.4
N    -0.4  -11.3    1.7
H    -8.8    7.3    1.1
H     9.2    6.1   -2.9
H    -3.9   10.1   -3.7
P    -9.1   -6.9   -0.8
H     2.9   10.9    2.0
H    -5.1    3.0    9.8
H     3.1    2.8  -10.8
I     2.3   -8.8   -7.1
N     3.9   -7.2    8.2
H    -0.8    5.8   10.0
H    10.0    5.4    2.3
H    -9.9    6.0    1.0
H    -1.0    6.9   -9.3
N     4.9   10.3    2.3
C    -0.1  -11.1   -3.6
H     7.7    7.0   -5.3
N    -9.4    6.7    1.7
H   -10.2   -2.0   -5.3
H     8.7    5.7   -5.3
I    -0.3   11.0   -3.9
H     9.1    7.3    1.1
H    -4.4   -7.8    7.6
I   -11.7    0.1   -0.8
H    -8.8   -1.6    7.6
C     8.8    6.9   -3.6
H     4.5   -7.8    7.6
I    -5.1   -2.5  -10.3
I     2.2    9.2   -7.1
H     0.8  -11.3    3.4
I   -11.0   -4.3   -0.7
H     5.3    0.8  -10.6
H   -10.5   -3.3   -4.4
H     1.1    6.1  -10.1
I     8.8   -7.0   -3.9
N     8.4   -2.1    8.2
I     4.4    6.5    8.9
H     5.0   10.1   -3.7
I    -4.5    6.5    8.9
H     9.1   -1.6    7.6
H    -8.3    7.6   -4.0
P    -9.4    2.0   -7.1
I    -9.3   -7.0    2.5
H     5.4   -5.9    8.9
H     3.1   -7.8    8.5
I    11.3    3.9   -0.6
C    -9.1    6.9   -3.6
N     3.8    2.2  -11.2
I   -11.0    4.6   -0.7
H    -5.5   10.3   -2.9
I    -7.2   -9.6   -0.6
N    -5.1   -7.2    8.2
H    -9.2    5.7   -5.3
N     0.2    5.8  -10.6
H    -0.8  -12.0    1.0
H     0.5   -3.4  -11.6
I    10.6   -0.6    5.8
C     4.3   10.8   -3.4
I    -9.1   -7.0   -3.9
H     3.9   -6.0    9.8
C     3.8   11.3    2.5
C    -4.3   -6.6    9.3
I    -2.2   -9.6   -7.2
H     0.4  -11.8   -2.9
I     6.1   -8.8    5.8
H    11.9    1.9    2.0
P    -0.0    2.0   12.1
H    -3.9   -6.8   -9.4
C     4.6   -6.6    9.3
H     3.2   10.6   -5.3
H     9.7    6.7    3.4
H     0.4    7.1   10.0
C    -4.7   10.8   -3.4
H    -1.2  -11.0   -5.3
P     4.3  -11.5   -0.8
C     0.4  -12.0    2.8
H     5.8   10.6    2.7
H     3.4    1.5  -11.8
I    -0.3   -6.8  -10.3
I     2.6    0.2   12.1
I    -1.9   -0.6   12.2
I     4.5  -11.3    2.5
C    -0.9    6.8  -10.4
P    -0.3   11.0    5.7
H     8.0   -2.1   -9.3
I    -4.5  -11.3    2.5
P    -4.6  -11.5   -0.8
I    11.3   -5.1   -0.6
I     6.0    9.2    5.8
H   -12.1    1.6    2.7
N    -5.1    2.2  -11.2
H     3.6   11.4    3.6
I    -7.3    8.4    5.8
H     7.9    6.1    7.6
N    -9.8    6.3   -4.7
P     8.8   -7.0    5.7
H    -5.9    2.8  -10.8
H    -5.1   -6.0    9.8
H    -8.1   -3.4    9.1
C    -5.1   11.3    2.5
N    -0.8  -11.7   -4.7
H    -6.1   10.9    2.0
H   -10.2    7.3    2.1
