         400
 sphere cut out from bulk 
H    -0.2   -1.9   -0.1
I    -2.2   -0.8    0.4
H     1.5   -2.0    0.3
N     0.8   -2.4   -0.4
H     1.0   -2.0   -1.3
I     2.9   -0.8    1.9
H    -0.1    3.6    0.3
H    -2.7    0.3   -2.6
H     0.6    3.5   -1.4
I     1.6   -0.9   -3.4
C     0.7   -3.9   -0.4
H     1.7    3.6    0.0
C     0.7    3.9   -0.4
H     1.2    0.0    4.0
H     0.6   -4.2    0.6
H    -0.1   -4.2   -1.0
I    -1.3    3.3    2.9
H     0.4   -2.2    4.0
H     1.7   -4.2   -0.8
H    -3.5   -1.9   -2.3
P    -3.8    1.5    2.1
C    -3.7    0.1   -2.8
H    -0.3   -0.0    4.7
H    -4.3    0.3   -1.9
N     0.7   -0.3    4.8
I    -1.1    3.2   -3.7
H     4.7    0.3   -1.9
N    -3.8   -1.3   -3.1
C     0.8   -1.7    4.9
P    -3.8   -2.9    2.4
H    -3.3   -1.6   -4.0
I    -2.9   -0.6    4.5
N     0.7    5.4   -0.4
I    -4.5    3.2   -0.5
H    -4.1    0.7   -3.7
I    -1.2   -4.6    3.0
I     4.6    3.2   -0.5
H     4.2   -1.6   -3.3
H     1.1    0.2    5.7
H     1.8   -2.0    5.1
P     0.7    1.4   -5.6
H    -0.2    5.8   -0.7
P     5.2    1.5    2.1
H     1.0    5.8    0.5
I    -1.3   -4.5   -3.7
C     5.3    0.1   -2.8
H     1.4    5.8   -1.1
H    -4.8   -1.6   -3.3
I     3.3    3.1    4.1
H     0.2   -2.1    5.8
N     5.2   -1.3   -3.1
H     5.0    0.7   -3.7
I    -1.7   -0.7   -6.0
H     5.6   -1.9   -2.3
I    -4.5   -4.5   -0.4
I     4.6   -4.5   -0.4
P     5.3   -2.9    2.4
I    -6.2   -0.8    1.9
P     0.7   -3.0   -5.7
I     3.5    3.0   -5.0
P    -3.8    4.8   -3.1
I     6.8   -0.8    0.4
P     0.7    4.8    4.9
H     6.4    0.3   -2.6
I     3.4   -4.7    4.2
H    -3.1    1.8    6.1
H    -3.4    6.1    1.4
H     5.8   -1.6   -4.0
H     0.5    5.5   -4.9
I    -2.3    7.0   -1.1
I     3.3   -4.8   -4.9
I     1.6    7.0    2.6
I     6.2   -0.6    4.5
H    -3.2    6.3    3.1
I    -5.8    3.1    4.1
P     5.3    4.8   -3.1
H    -7.6   -2.0    0.3
P    -3.8   -6.3   -2.9
I     2.2   -0.8   -7.6
N    -3.8    6.6    2.3
P     0.8   -6.3    4.8
H    -2.7   -7.2    2.0
I     2.8    6.9   -2.7
H     4.3    6.3    2.5
I    -5.6    3.0   -5.0
I     0.1    3.1    7.5
H    -3.2    0.7   -7.4
H    -7.4    3.6    0.0
C    -3.6    2.4    7.0
I    -7.4   -0.9   -3.4
H    -4.8    6.3    2.5
H    -4.4    1.8   -6.9
H    -8.1   -2.0   -1.3
C     0.8    6.1   -5.8
I    -5.7   -4.7    4.2
H     5.6    6.1    1.4
H    -2.8    3.0    7.4
H     4.7    1.8   -6.9
I     2.3   -0.7    8.2
H    -7.4   -4.2   -0.8
H    -4.4   -7.2    1.3
H     1.8    5.8   -6.0
H    -4.5    2.9    6.7
H     4.6    2.9    6.7
N    -8.3   -2.4   -0.4
P     5.2   -6.3   -2.9
C    -3.7   -7.5    2.2
H     4.7   -7.2    1.3
H     5.9    1.8    6.1
N     5.3    6.6    2.3
H    -4.1   -7.1    3.1
H    -7.8    0.0    4.0
I     0.1    3.1   -8.2
N    -4.0    1.3   -7.7
H     0.2    5.8   -6.7
I     0.1   -4.8    7.5
H     4.4    0.7    7.7
H    -3.1    0.8    8.3
I     7.8    3.3    2.9
I    -2.3   -8.6   -1.1
I    -1.6    7.1    5.2
I    -5.8   -4.8   -4.9
H    -4.6    0.7    7.7
H    -2.7    8.3    2.0
N    -3.9    1.3    8.0
H    -7.2   -2.0    5.1
H    -3.9   -5.0    6.5
I     1.6   -8.6    2.6
H     8.9   -1.9   -0.1
H     5.8    6.3    3.1
C    -3.7    8.1    2.2
H     4.9   -7.1    3.1
C    -8.3   -3.9   -0.4
C     5.5    2.4    7.0
C    -8.3    3.9   -0.4
H     4.4    0.6   -8.1
H     1.3   -7.8   -4.8
H     1.3    7.8   -4.8
H    -8.5    3.5   -1.4
H    -2.9    3.0   -8.3
I    -2.9    7.1   -5.3
N     5.1    1.3   -7.7
I     7.9    3.2   -3.7
H    -4.7    0.6   -8.1
N     0.7    7.5   -5.6
H    -9.2   -1.9   -0.1
C     5.3   -7.5    2.2
H    -8.5   -4.2    0.6
I     2.8   -8.6   -2.7
H    -0.3    7.8   -5.4
H    -0.3   -7.8   -5.4
H     5.9    0.7   -7.4
H    -4.4    8.4    1.3
I     7.4   -0.7   -6.0
I     0.0   -4.8   -8.3
I     7.9   -4.6    3.0
N     5.1    1.3    8.0
H    -7.6    5.8   -1.1
N    -8.4   -0.3    4.8
H     5.1   -5.0    6.5
H     9.0    3.6    0.3
H     4.7    8.4    1.3
I    -6.2    6.9   -2.7
I     7.8   -4.5   -3.7
H    -2.9   -5.0   -7.8
C    -3.6    2.3   -8.8
H    -2.8   -5.0    7.9
H    -8.6   -2.2    4.0
I     6.7    7.0   -1.1
C    -8.3   -1.7    4.9
H    -8.0    0.2    5.7
H    -0.2   -9.8   -0.7
N     0.7   -8.0   -5.6
H    -9.1    3.6    0.3
H     1.0   -9.7    0.5
H     6.3   -7.2    2.0
I    -1.6   -0.7    9.7
C     5.3    8.1    2.2
H     8.7   -0.0    4.7
N    -8.3    5.4   -0.4
H    -4.1    8.5    3.1
H     8.9   -4.2   -1.0
H     1.4   -9.8   -1.1
C    -3.8   -5.3    7.5
H     1.0   -7.5   -6.4
H    -8.1    5.8    0.5
H    -4.3    1.8    8.8
I     2.3    7.1    6.7
N    -3.8   -9.0    2.3
N     9.8   -2.4   -0.4
P    -8.3    1.4   -5.6
I    -1.6   -8.5    5.2
H    -9.2   -4.2   -1.0
H    -3.4   -9.4    1.4
H     1.0    0.1  -10.1
H     6.2    3.0    7.4
H     4.4   -5.1   -7.6
H     0.1   -2.1   -9.9
H     4.7    1.8    8.8
N     0.7  -10.2   -0.4
I    -6.8   -0.8   -7.6
H     5.9    0.8    8.3
H    -4.7   -5.1   -7.6
P     0.8    1.5   10.2
H    -3.2    1.8   -9.6
H     5.0    8.5    3.1
H    -3.2   -9.3    3.1
H    10.0   -2.0   -1.3
I    -2.9   -8.4   -5.3
H     1.0    8.0   -6.4
H     9.6    3.5   -1.4
H    -3.0   -7.2    6.8
P     0.8    9.2    4.8
P    -3.8    9.3   -2.9
P     0.7   -3.0   10.0
H    -9.4   -0.0    4.7
H     4.3   -9.3    2.5
H     4.5    2.9   -9.0
I    -7.4    7.0    2.6
H    -4.5    2.9   -9.0
H     4.4   -5.0    8.1
C     9.8   -3.9   -0.4
H     9.5   -2.2    4.0
H     9.6   -4.2    0.6
C     9.8    3.9   -0.4
C     5.4    2.3   -8.8
C    -3.8   -5.4   -8.2
H     8.8    5.8   -0.7
P    -8.4   -3.0   -5.7
H    -4.6   -5.0    8.1
C     5.3   -5.3    7.5
I    -6.8   -0.7    8.2
N     5.3   -9.0    2.3
H     6.4    8.3    2.0
H    10.5   -2.0    0.3
H    -4.8   -9.3    2.5
P    -8.3    4.8    4.9
H    -8.9   -2.1    5.8
H     6.2    3.0   -8.3
H     0.2    5.8    9.1
I     6.2    7.1   -5.3
N    -3.8   -6.8    7.5
N     9.7   -0.3    4.8
H    -3.6   -7.3   -7.3
H    -9.3    5.8   -0.7
I    -6.2   -8.6   -2.7
N     0.6   -0.3  -10.9
I     6.7   -8.6   -1.1
C     0.7   -1.8  -10.8
H     1.8   -2.0  -10.6
H    10.3    0.0    4.0
H    -7.2    5.8   -6.0
I     2.3   -8.5    6.7
P     5.2    9.3   -2.9
H     5.6   -9.4    1.4
H    -0.4   -0.1  -11.1
H     9.2   -2.1    5.8
H     4.4   -7.3    7.2
C     5.2   -5.4   -8.2
C     9.8   -1.7    4.9
H     0.5  -10.0   -4.9
H     6.2   -5.0   -7.8
C     0.8   -9.5   -5.8
N     9.8    5.4   -0.4
H    -3.0    8.3    6.8
I   -10.3    3.3    2.9
H     6.2   -5.0    7.9
H    -4.7   -7.3    7.2
I    10.7   -0.9   -3.4
H    -4.0   -5.0   -9.3
I   -10.2    3.2   -3.7
I   -11.3   -0.8    0.4
H    10.7    3.6    0.0
H    -8.6    5.5   -4.9
P     9.8    1.4   -5.6
H     0.6   11.4    0.6
N    -3.8   -6.9   -8.2
H     5.8   -9.3    3.1
H     5.9    1.8   -9.6
H    -0.1   11.4   -1.0
I    -1.2   11.0    3.0
N     5.3   -6.8    7.5
P    -8.3   -6.3    4.8
H     1.7   11.3   -0.8
I     7.4    7.1    5.2
H     1.9    5.8    9.7
H    10.7   -4.2   -0.8
I   -10.2   -4.6    3.0
H    10.1    0.2    5.7
H    10.0    5.8    0.5
H     1.8   -9.7   -6.0
I    -3.0   -0.6  -11.2
H     6.0   -7.2    6.8
H    -3.6    8.3   -7.3
I    -7.4   -8.6    2.6
H    -3.5   -7.2    8.4
I     3.5    3.0   10.7
H     5.5   -7.3   -7.3
I     2.3    7.0   -9.0
C     0.9    6.1    9.9
C     0.7  -11.7   -0.4
I     6.2   -8.4   -5.3
I    -1.3   11.0   -3.7
P     9.7   -3.0   -5.7
H     5.1   -5.0   -9.3
C     0.7   11.7   -0.4
C    -8.3    6.1   -5.8
P    -3.8  -10.7   -3.1
H     0.2   -9.8   -6.7
H     1.2   -0.0  -11.8
I    -6.7    7.1    6.7
H     4.4    8.3    7.2
P     0.7    4.7  -10.8
I   -10.3   -4.5   -3.7
P     0.7  -10.8    4.9
H    -3.1   -7.3   -8.9
I    -4.5   11.0   -0.4
H     0.4   -2.2  -11.7
H    -4.7    8.3    7.2
N     5.2   -6.9   -8.2
P     9.8    4.8    4.9
I     4.6   11.0   -0.4
H    -7.8   -7.8   -4.8
H    -7.8    7.8   -4.8
H    -0.1  -12.0    0.3
H    10.5    5.8   -1.1
H     1.1   -7.5    9.3
H   -11.7    0.3   -2.6
H     4.3   -7.3   -8.5
H     9.5    5.5   -4.9
I    -8.9    3.1    7.5
I    11.9   -0.8    1.9
N    -3.8    8.7    7.5
H     1.7  -12.0    0.0
H     0.6  -12.0   -1.4
I     3.4   10.9    4.2
H    -4.7   -7.3   -8.5
H    10.9   -2.0    5.1
H     0.5    5.6   10.8
I     9.2    3.1    7.5
I     7.4   -0.7    9.7
I     3.3   -4.7   10.8
H    -3.2   -1.5   11.7
I     3.3   10.8   -4.9
I   -10.7   -0.7   -6.0
H     6.0    8.3    6.8
H     5.5    8.3   -7.3
H    -3.5    8.3    8.4
H     1.1    8.1    9.3
P     5.3  -10.7   -3.1
H     5.5   -7.2    8.4
I    -5.5    3.0   10.7
I     7.4   -8.5    5.2
H    -7.6   -9.8   -1.1
I     1.7   -0.8   12.3
I    -1.1    3.2   12.0
I     3.2    3.1  -11.7
H    -8.9    5.8   -6.7
N    -8.4    7.5   -5.6
H    -3.1    8.3   -8.9
N    -3.8    8.7   -8.2
I    -9.0    3.1   -8.2
P     9.8   -6.3    4.8
I    -9.0   -4.8    7.5
I     2.3   -8.5   -9.0
H     4.3    8.3   -8.5
N     5.3    8.7    7.5
I     9.1    3.1   -8.2
H    -8.1   -9.7    0.5
I    -1.3  -12.3    2.9
N     0.8    7.6   10.2
P     0.7   -6.4  -11.0
I     9.1   -4.8    7.5
H    -4.0    0.7   12.0
I    -6.7   -8.5    6.7
H    -8.0   -7.5   -6.4
I    -1.7    7.0  -10.5
H     9.2    5.8   -6.7
H    -4.7    8.3   -8.5
I     6.1   -0.6  -11.2
I   -11.9   -0.6    4.5
N    -8.4   -8.0   -5.6
H     8.7    7.8   -5.4
H    -8.1    0.1  -10.1
H     8.7   -7.8   -5.4
H   -12.5   -1.9   -2.3
I    -1.2   -4.5   12.0
H    -0.2   -7.8   10.3
I     3.3   -4.7  -11.6
C     9.9    6.1   -5.8
H     5.9   -7.3   -8.9
N     0.8   -8.0   10.2
H    -0.2    7.8   10.3
I    -1.1  -12.4   -3.7
I    -5.7   10.9    4.2
H    -3.9   10.6    6.5
I    -2.8    7.2   10.5
I    10.7    7.0    2.6
H    -8.0    8.0   -6.4
H   -12.3   -1.6   -4.0
