         400
 sphere cut out from bulk 
I    -0.5    1.4   -1.6
H     2.2    0.9    1.4
H     0.9    0.9    2.7
C     2.0    1.0    2.5
P    -2.5    2.2    0.6
P     1.9    0.2   -3.2
I    -2.6    0.1    2.9
H     2.4   -1.0    3.0
H     2.3    2.0    2.8
I     3.9    1.1   -1.0
N     2.7   -0.0    3.3
H    -1.2   -3.1    2.8
I    -0.2    4.0    1.9
I    -0.5   -4.3   -1.0
H    -2.1   -3.9    1.4
I     2.0   -3.4    2.8
H    -2.2    1.5   -4.1
H     3.8    0.0    3.1
C    -2.1   -3.6    2.5
I    -0.1   -1.8   -4.6
H     2.5    0.0    4.3
H    -3.0   -3.0    2.7
I    -4.9    1.1   -1.0
P    -2.5   -3.5   -3.2
H    -2.2    0.9    5.2
C    -2.4    1.4   -5.1
H    -2.1    0.4   -5.5
P     2.0   -5.5    0.6
H    -5.1    0.0    3.1
P     2.0    5.9    0.6
I     1.8    2.3   -5.5
H    -0.7    2.4   -5.8
N    -2.2   -4.9    3.3
I     4.3    4.3    1.9
I     4.0   -4.7   -1.7
I     4.3   -1.5   -4.6
H    -1.4   -5.5    3.1
I    -4.5    4.3    1.9
H    -3.5    1.5   -5.3
N    -1.7    2.5   -5.9
I    -4.6   -1.5   -4.6
N    -2.2    1.1    6.2
H    -2.2   -4.7    4.3
P     6.4    2.2    0.6
H    -1.4    5.9    3.1
H     1.4   -3.6   -5.7
H    -1.4    1.8    6.4
H    -6.7    0.9    1.4
H    -2.0    3.4   -5.6
I     6.3    0.1    2.9
H    -1.2   -0.6    6.8
H     2.3   -5.1   -4.1
H    -3.0   -5.5    3.0
H     2.5   -3.8    5.2
N    -6.1   -0.0    3.3
I     2.0   -0.3    6.7
I    -4.9   -4.7   -1.7
H    -6.4   -1.0    3.0
H     5.9   -3.0    2.7
I    -0.5    7.2   -1.0
H     3.0   -3.5   -5.7
C    -2.1   -0.1    7.0
H    -3.0    6.0    3.0
C    -6.9    1.0    2.5
H    -3.0    1.7    6.5
H    -6.5    2.0    2.8
H    -3.0   -0.7    6.8
H     2.4   -2.8    6.6
N     2.2   -4.1   -5.9
H    -1.9    2.4   -6.9
N    -2.2    6.5    3.3
P    -6.9    0.2   -3.2
H    -6.3    0.0    4.3
H     5.3    1.5   -5.3
I    -0.2   -7.5    1.9
C     2.3   -5.4   -5.1
H     1.5    5.4   -5.4
N     2.7   -3.7    6.3
H     2.3    6.3   -4.1
H     6.8   -3.9    1.4
H     6.6    1.5   -4.1
P     6.4   -3.5   -3.2
H    -2.1    7.5    1.4
I     4.0    6.7   -1.7
C     6.8   -3.6    2.5
I    -2.6   -3.9    6.6
I    -6.9   -3.4    2.8
H     1.5   -6.0   -5.4
I    -2.4   -5.6   -5.5
C     2.3    6.1   -5.1
H     2.2    1.5   -7.9
H    -2.2    6.8    4.3
H     0.9   -4.6    6.9
C     6.4    1.4   -5.1
H     3.8   -3.8    6.4
I    -2.4    5.8   -5.5
H    -2.1    0.2    8.1
H     3.2    5.6   -5.4
H    -7.9    0.9    2.7
C    -2.1    7.8    2.5
H     2.2   -4.3   -6.9
I    -0.2    3.7    7.6
I    -4.9    6.7   -1.7
H     6.6    0.9    5.2
H     5.8   -5.5    3.0
I     4.3   -7.2    1.9
H     3.2   -5.9   -5.4
I     8.4    1.4   -1.6
H     6.8    0.4   -5.5
I    -4.5   -7.2    1.9
C     2.0   -4.8    7.0
H     7.7   -3.1    2.8
I     2.0    8.0    2.8
H    -1.2    8.3    2.8
P    -6.9   -5.5    0.6
H    -5.8   -3.5   -5.7
H     5.8    6.0    3.0
H     5.8    1.7    6.5
N     6.7   -4.9    3.3
P    -2.5    8.0   -3.2
H     5.9   -0.7    6.8
H    -5.1   -3.8    6.4
H    -6.3   -3.8    5.2
P    -6.9    5.9    0.6
H     2.3    5.7    6.7
H     2.3   -5.7    6.7
H     6.6   -4.7    4.3
N     6.7    1.1    6.2
I    -7.0    2.3   -5.5
N     2.2    1.3   -8.9
H    -6.5   -5.1   -4.1
H     1.4    0.7   -9.1
H    -3.0    8.4    2.7
P     2.0    1.8    9.0
I     4.3    3.4    7.6
I     8.4   -4.3   -1.0
I    -4.5    3.4    7.6
H     6.9    3.4   -5.6
N    -6.1   -3.7    6.3
P    -2.5   -9.2    0.6
H    -5.6    5.6   -5.4
I    -6.9   -0.3    6.7
H    -6.4   -2.8    6.6
N     7.2    2.5   -5.9
H     3.0    0.6   -9.1
H     2.2   -4.6    8.1
I    -9.4    1.4   -1.6
H     2.5    7.7    5.2
H    -1.9   -5.2   -7.9
N     2.2    7.3   -5.9
H     0.9    6.8    6.9
I     8.7    4.0    1.9
H    -5.6   -5.9   -5.4
C     6.8   -0.1    7.0
H     7.5   -5.5    3.1
N    -6.6   -4.1   -5.9
H     1.4    7.9   -5.7
C    -6.5   -5.4   -5.1
N     6.7    6.5    3.3
C     2.0    6.7    7.0
I     6.3   -3.9    6.6
H    -6.5    6.3   -4.1
H    -2.0   -8.0   -5.6
H     7.5    5.9    3.1
H     7.5    1.8    6.4
I    -2.4    2.8   -9.3
H    -7.5   -3.6   -5.7
I    -9.0    4.0    1.9
I     8.8   -1.8   -4.6
H     1.5    3.2   -9.4
H     6.9    2.4   -6.9
H    -2.1   -3.3   -9.3
H     2.3   -9.4    2.8
I     6.4   -5.6   -5.5
H     9.8    0.9    2.7
H     2.2    7.1   -6.9
I    -0.5  -10.1   -1.6
H    -1.9    6.2   -7.9
H     6.8    7.5    1.4
I    -9.0   -1.8   -4.6
H     7.7   -0.6    6.8
H     3.0    8.0   -5.7
C     2.3    2.5   -9.7
I    -0.1   -1.0  -10.2
I     6.4    5.8   -5.5
H     8.2    2.4   -5.8
C    -6.5    6.1   -5.1
N     2.7    7.7    6.3
I    -9.3   -4.3   -1.0
H     6.6    6.8    4.3
I    -2.6    7.6    6.6
H    -6.7    1.5   -7.9
H     3.2    3.1   -9.4
H    -0.7   -5.2   -9.0
N    -1.7   -5.3   -8.9
I    -0.5    0.5   10.5
H     6.8    0.2    8.1
H    -6.7   -4.3   -6.9
C     6.8    7.8    2.5
H     5.9    8.4    2.7
H    -7.4    5.4   -5.4
I    -0.1    9.6   -4.6
H     3.8    7.6    6.4
P     6.4    8.0   -3.2
H    -2.0    5.2   -9.2
H    -0.7   -9.1   -5.8
I     1.8   -5.1   -9.3
P    -2.5    5.4    8.9
H    -5.8    0.6   -9.1
H     2.2    6.8    8.1
I    -0.2   -7.7    7.6
I     1.8   -9.1   -5.5
C    -2.4   -4.2   -9.7
N    -1.7   -9.0   -5.9
H   -10.0   -3.1    2.8
H     2.2  -10.6    1.4
C     2.0  -10.4    2.5
H    -2.2   -9.9   -4.1
H     0.9  -10.6    2.7
I    -6.9    8.0    2.8
H    -7.4   -6.0   -5.4
C    -6.9   -4.8    7.0
N    -1.7    6.1   -8.9
H    -6.5    5.7    6.7
H    -6.5   -5.7    6.7
H    -0.7    6.2   -9.0
H    -3.5   -4.4   -9.5
P    -2.5   -6.0    8.9
I     8.4    7.2   -1.0
H     2.4   10.4    3.0
I     3.9  -10.4   -1.0
N    -6.6    1.3   -8.9
H     2.4    8.7    6.6
I     4.3   -1.3  -10.2
C    10.8    1.0    2.5
P     6.4   -9.2    0.6
H    11.1    0.9    1.4
H    -5.1    7.6    6.4
H     2.3    2.3  -10.7
H    -6.3    7.7    5.2
P    10.8    0.2   -3.2
I    -4.6   -1.3  -10.2
H    -2.0   -6.3   -9.2
I     1.8    6.3   -9.3
H    -5.6    3.1   -9.4
H    -9.5    2.4   -5.8
H    -5.8    8.0   -5.7
P    -6.9    1.8    9.0
H    -6.7   -4.6    8.1
H    -7.9   -4.6    6.9
C    -2.4  -10.0   -5.1
N    -6.6    7.3   -5.9
I    -4.9  -10.4   -1.0
H    -1.9   -9.0   -6.9
P   -11.4    2.2    0.6
I     8.7   -7.5    1.9
H     7.7    8.3    2.8
I     6.4    2.8   -9.3
N    -6.1    7.7    6.3
H    -1.4   -9.7    6.4
H    11.2    2.0    2.8
I     4.3    9.9   -4.6
H    11.3   -1.0    3.0
H     6.9   -5.2   -7.9
H   -11.0   -3.9    1.4
H     5.3   -4.4   -9.5
I    10.9   -3.4    2.8
H    -3.5   -9.9   -5.3
I    -9.3    7.2   -1.0
H    -2.2   -4.4  -10.7
C   -11.0   -3.6    2.5
I   -11.5    0.1    2.9
H    -7.5    0.7   -9.1
H    -6.5   -9.4    2.8
I    -4.6    9.9   -4.6
I     6.3    7.6    6.6
I     4.3   -8.0    7.6
P     1.9  -11.3   -3.2
P    -2.5    0.6  -11.6
I    -9.0   -7.5    1.9
C    -6.9    6.7    7.0
H   -11.1    1.5   -4.1
I     4.0    1.0   11.2
I    -4.5   -8.0    7.6
H    -2.2  -10.5    5.2
H     6.9   -8.0   -5.6
C    -6.5    2.5   -9.7
I    -2.6  -11.3    2.9
H     6.8   -3.3   -9.3
H    -6.7    7.1   -6.9
N    11.6   -0.0    3.3
H   -10.3   -5.5    3.1
H    -3.0   -9.7    6.5
P     1.9   -3.0  -11.6
H   -10.0   -0.6    6.8
I     8.7    3.7    7.6
H    11.4    0.0    4.3
N     2.7   11.4    3.3
P    10.8   -5.5    0.6
H     6.9    6.2   -7.9
I    -2.6   11.6    2.9
P     1.9   11.6   -3.2
N     2.7  -11.5    3.3
H    10.2   -3.6   -5.7
N    -2.2  -10.3    6.2
H   -10.3    5.9    3.1
I     3.9   -4.8   10.6
I    10.7    2.3   -5.5
H    -7.5    7.9   -5.7
H   -10.3    1.8    6.4
P     6.4    5.4    8.9
I    -4.9    1.0   11.2
H   -11.0    0.4   -5.5
P   -11.3   -3.5   -3.2
I    -0.5   -5.1   11.2
C    -2.4    7.2   -9.7
H   -11.1    0.9    5.2
P    10.8    5.9    0.6
H    -3.5    7.1   -9.5
N   -10.6    2.5   -5.9
C     6.4   -4.2   -9.7
I    -9.0    3.7    7.6
H     3.7  -11.4    3.1
H    -7.4    3.2   -9.4
H     5.3   -9.9   -5.3
H     2.5  -11.4    4.3
H    -2.1  -11.0   -5.5
H     3.8   11.5    3.1
C   -11.3    1.4   -5.1
H    -6.7    6.8    8.1
H     2.5   11.5    4.3
P     6.4   -6.0    8.9
H    -7.9    6.8    6.9
H   -11.8   -3.0    2.7
N   -11.1   -4.9    3.3
H    -6.7  -10.6    1.4
H    -2.1    8.2   -9.3
N     7.1   -5.3   -8.9
H     6.6   -9.9   -4.1
H     6.9    5.2   -9.2
H     2.2   12.3    1.4
I    -4.9   -4.8   10.6
H    -6.4   10.4    3.0
H     1.5   -8.3   -9.4
H    -6.4    8.7    6.6
H     0.9   12.3    2.7
H   -10.9    3.4   -5.6
I    -7.0   -5.1   -9.3
C    -6.9  -10.4    2.5
N   -11.1    1.1    6.2
H    -6.5    2.3  -10.7
I    10.9   -0.3    6.7
I    -7.0   -9.1   -5.5
H   -11.1   -4.7    4.3
H     9.8   -4.6    6.9
H    -1.2   10.8    6.8
I    -0.5    6.3   11.2
H    10.3    5.4   -5.4
C     2.0   12.5    2.5
H     2.2   -9.9   -7.9
I    12.8    1.1   -1.0
H    -5.1  -11.4    3.1
N     7.1   -9.0   -5.9
I    -0.5   12.8   -1.6
H    11.2   -5.1   -4.1
H    -5.1   11.5    3.1
C     6.4  -10.0   -5.1
I    -2.4   -8.7   -9.3
N     7.2    6.1   -8.9
H     5.3    7.1   -9.5
P    -2.5   -0.3   12.7
H    12.6    0.0    3.1
H     3.2   -8.4   -9.4
H     2.4  -12.4    3.0
H    -3.0   10.7    6.8
H   -10.8    2.4   -6.9
C   -11.0   -0.1    7.0
H    -2.2    7.1  -10.7
I     3.9    6.6   10.6
H     6.9   -6.3   -9.2
H     5.8   -9.7    6.5
H    10.3   -6.0   -5.4
H    11.4   -3.8    5.2
I     2.0   11.1    6.7
I     3.9   12.5   -1.0
I     8.4  -10.1   -1.6
N    11.1   -4.1   -5.9
I     6.3  -11.3    2.9
I    -7.0    6.3   -9.3
H    -2.1   11.9   -5.5
P     6.4    0.6  -11.6
H     8.2   -5.2   -9.0
N   -11.1    6.5    3.3
P     2.0   -9.6    9.0
H   -10.0    8.3    2.8
H     6.9   -9.0   -6.9
C     2.3   -8.9   -9.7
H    11.3   -2.8    6.6
H     6.6   -4.4  -10.7
N    -6.1   11.4    3.3
