         400
 sphere cut out from bulk 
H     0.3    0.4    1.3
H    -0.9   -1.2   -0.0
N     0.3   -0.6    1.6
C    -0.9   -1.3    1.0
H     1.1   -1.1    1.3
H    -1.8   -0.8    1.4
I     1.1    2.3   -0.1
H     0.3   -0.7    2.7
H    -0.9   -2.4    1.3
I     1.9   -1.2   -2.8
H     0.1    2.8   -2.4
I    -2.6   -0.5   -2.6
P     3.8    1.0   -1.3
I     3.9   -1.1    1.2
I    -3.3    3.1    0.2
N    -0.0    3.3   -3.3
P    -0.6    4.5    1.4
I    -0.6    2.7    3.9
H    -0.7    1.6   -4.5
P    -0.7   -2.7   -4.0
I    -0.8   -4.6   -1.4
H     3.0    2.4    3.2
H    -2.0    2.6   -3.8
H     0.9    3.3   -3.8
C    -1.0    2.6   -4.3
H    -0.3    4.2   -3.1
I     1.3   -1.3    5.0
I    -5.1   -1.1    1.2
H     2.6   -4.5   -1.4
P    -5.1    1.0   -1.3
H     4.3   -3.4   -0.1
H    -3.4   -4.4   -0.9
I     1.9   -4.9    2.3
H    -4.6   -3.4   -0.1
I    -2.6   -4.4    2.8
H     3.7   -3.8   -2.5
H    -4.3    3.0    2.9
I     3.5    2.8   -4.0
H     3.3   -1.0   -4.9
C     3.8    3.0    3.6
C     3.6   -4.5   -1.7
H    -1.1    3.2   -5.2
P     3.9   -2.8    3.9
N    -4.4   -4.3   -0.6
N     4.5   -4.3   -0.6
H     4.7    3.0    2.9
I    -3.2   -0.7    5.4
I     5.6    3.1    0.2
H     3.4    4.0    3.7
I    -0.8    6.4   -1.4
P    -0.6    0.8    6.5
H    -4.1   -0.4   -5.2
P    -0.7   -6.5    1.4
I    -0.7   -0.8   -6.6
H    -4.3    1.5    4.9
H     4.4   -5.1    0.1
I     1.9    6.1    2.3
H    -4.6   -5.1    0.1
I     6.3   -0.5   -2.6
H     4.6    1.5    4.9
H    -5.2   -3.8   -2.5
H    -0.9   -4.3    5.3
N     4.2    2.5    4.9
C    -5.2    3.0    3.6
H     3.8    5.5   -2.2
N     4.1   -1.0   -5.6
H     3.5    2.5    5.6
P    -5.1   -2.8    3.9
H     3.8   -5.5   -2.2
H     5.5   -4.4   -0.9
H     2.6    6.5   -1.4
H     4.9   -0.4   -5.2
H    -5.9    2.4    3.2
C    -5.4   -4.5   -1.7
N    -4.7    2.5    4.9
I    -5.4    2.8   -4.0
H     7.1   -0.8    1.4
H    -4.0    3.1    5.3
H     4.4    5.9    0.1
I     1.1   -4.8   -5.5
I    -3.4   -4.2   -5.1
H    -0.3   -6.8   -3.1
N    -4.8   -1.0   -5.6
H    -4.5   -2.0   -5.7
H    -4.6    5.9    0.1
H     4.5   -2.0   -5.7
H    -3.4    6.6   -0.9
H    -5.6   -1.0   -4.9
H     3.3    0.5   -6.8
C     3.6    6.4   -1.7
I    -2.6    6.6    2.8
I    -7.1   -1.2   -2.8
H    -5.5    4.0    3.7
H    -5.1    5.5   -2.2
C     3.7   -0.5   -6.9
H    -5.2   -5.5   -2.2
I     5.7   -0.7    5.4
H     5.0    3.1    5.3
H    -0.5    5.1    6.0
H    -6.4   -4.5   -1.4
H     2.9   -1.1   -7.3
C    -0.9   -4.9    6.2
H    -7.8   -1.1    1.3
H     1.0   -4.2    6.8
N    -4.4    6.7   -0.6
N     4.5    6.7   -0.6
H    -0.2   -3.3    7.4
H     8.0   -1.2   -0.0
I    -7.8    2.3   -0.1
C     8.0   -1.3    1.0
H    -5.5    2.5    5.6
I     6.4   -4.4    2.8
I     2.0    2.3    7.7
N     0.1   -4.2    7.2
H     7.0    2.6   -3.8
I     1.1    6.2   -5.5
N    -0.1   -7.7   -3.3
H    -0.6   -5.9    6.0
H     8.0   -2.4    1.3
H     3.8    7.2   -2.5
H    -1.9   -4.9    6.7
C    -5.4    6.4   -1.7
I    -3.3   -7.9    0.2
H     0.9   -7.7   -3.8
H     0.0   -8.2   -2.4
H     3.4   -7.0    3.7
H    -0.9    6.7    5.3
I     5.6   -4.2   -5.1
H     5.5    6.6   -0.9
I    -2.7    3.1   -7.7
C    -5.3   -0.5   -6.9
I     1.1   -8.6   -0.1
H     4.3    7.6   -0.1
H    -8.6    0.4    1.3
H    -0.9    8.6    1.3
C    -0.9    6.1    6.2
H    -4.4   -0.5   -7.6
I    -7.0   -4.9    2.3
I    -2.5    3.0    7.9
I     1.8    2.6   -8.2
H    -5.7    0.5   -6.8
H     4.5   -0.5   -7.6
I     3.7   -4.7    6.6
N    -8.7   -0.6    1.6
H    -4.6    7.6   -0.1
P     3.7    4.7   -6.6
H     0.2   -4.2   -7.9
H     3.9   -0.3    8.0
H    -8.7   -0.7    2.7
I    -3.4    6.8   -5.1
I    -0.7   -1.1    9.1
H    -6.4    6.5   -1.4
I    -0.6   -8.3    3.9
P    -0.8    1.0   -9.2
H    -5.2    7.2   -2.5
I    -7.7   -1.3    5.0
H    -1.9    6.1    6.7
P    -0.7    8.3   -4.0
H     9.2    0.4    1.3
H     0.2   -4.8    8.1
N     9.2   -0.6    1.6
C     7.9    2.6   -4.3
H    -1.1   -7.8   -5.2
H    -2.0   -8.4   -3.8
H     3.9   -2.0    8.3
I     8.1   -4.6   -1.4
C    -1.0   -8.4   -4.3
H    -8.0    3.3   -3.8
H    -4.3   -8.0    2.9
H    -5.1   -0.3    8.0
C     3.8   -8.0    3.6
P     8.2   -2.7   -4.0
H     8.3    1.6   -4.5
P     8.3    4.5    1.4
H    -6.1   -1.1   -7.3
C     3.7   -1.1    8.8
I    -7.0    6.1    2.3
H     2.7   -1.0    9.1
P    -5.2    4.7   -6.6
I     6.4    6.6    2.8
I     8.4    2.7    3.9
H     9.2   -0.7    2.7
H    -8.9    2.8   -2.4
I    -5.3   -4.7    6.6
H     1.0    6.8    6.8
H    -5.6   -7.0    3.7
H     4.7   -8.0    2.9
H     3.0   -8.6    3.2
I     5.6   -7.9    0.2
H     0.2   -3.1   -9.2
H     9.0    2.8   -2.4
I     3.5   -8.2   -4.0
C    -0.9    9.7    1.0
H    -0.9    9.8   -0.0
N     0.1   -4.1   -8.9
I     3.7    6.3    6.6
P     3.9    8.2    3.9
N     0.1    6.8    7.2
P     3.7   -6.3   -6.6
H    -9.9   -1.2   -0.0
H    -5.0   -2.0    8.3
H     7.9    3.2   -5.2
C    -9.9   -1.3    1.0
N     8.9    3.3   -3.3
H     1.2    9.9    1.3
H     8.6    4.2   -3.1
N    -9.0    3.3   -3.3
C    -5.2   -8.0    3.6
I     5.6    6.8   -5.1
H    -3.3   -0.9    9.6
H     0.2    6.2    8.1
H    -9.9   -2.4    1.3
H    10.1   -1.1    1.3
H    -2.0   -4.3   -9.1
C    -5.2   -1.1    8.8
H    -4.0   -7.9    5.3
H     1.0   -4.6   -9.2
I    10.1    2.3   -0.1
I     1.9    9.8   -2.8
P    -5.1    8.2    3.9
I     6.3    3.1   -7.7
H     0.2    6.8   -7.9
H    -0.7   -9.4   -4.5
I     8.1    6.4   -1.4
H    -1.8   10.2    1.4
N     0.3   10.4    1.6
P    -5.2   -6.3   -6.6
H     8.0   -4.3    5.3
I    -5.3    6.3    6.6
I    -5.4   -8.2   -4.0
H    -1.0    5.1   -9.2
I     8.2   -0.8   -6.6
I    -6.9    2.3    7.7
P     8.3   -6.5    1.4
H     0.3   10.3    2.7
I     6.4    3.0    7.9
P     8.4    0.8    6.5
I    -9.5    2.7    3.9
H    -9.3    4.2   -3.1
C    -1.1   -4.8   -9.5
I    -7.8   -4.8   -5.5
N     4.2   -8.5    4.9
I     3.9    9.9    1.2
P    -9.6    4.5    1.4
H    -0.2    7.7    7.4
H     0.3  -10.6    1.3
H    -9.6    1.6   -4.5
H    -0.8    2.3   10.5
H     5.0   -7.9    5.3
I     1.0   -1.1  -10.7
H     3.4   -8.5    5.6
P    -9.7   -2.7   -4.0
P     3.8  -10.0   -1.3
N    -4.3   -0.8    9.9
I    -3.4   -0.4  -10.3
N    -4.7   -8.5    4.9
I    -9.8   -4.6   -1.4
H   -10.8   -0.8    1.4
H     7.1   -4.9    6.7
H    -1.0   -5.9   -9.2
H    -5.9   -8.6    3.2
N     4.6   -0.8    9.9
P     4.0    4.5    9.2
I     1.3    9.7    5.0
I     3.7   -4.6   -9.3
H     9.9    3.3   -3.8
I    -2.6   10.5   -2.6
H    -6.3   -1.0    9.1
C   -10.0    2.6   -4.3
H     5.6   -0.9    9.6
I    -5.1    9.9    1.2
I    -7.1    2.6   -8.2
H    -7.9   -4.2    6.8
N     0.1    6.9   -8.9
I    10.8   -1.2   -2.8
H     4.5    0.1   10.4
C     8.0   -4.9    6.2
H     1.0    6.4   -9.2
H    -4.5    0.1   10.4
P    -5.1  -10.0   -1.3
I    -2.7   -7.9   -7.7
C    -1.1    6.2   -9.5
H     8.6   -6.8   -3.1
P    -5.0    4.5    9.2
I    -7.8    6.2   -5.5
H    -1.9    6.7   -9.1
H     0.3   11.4    1.3
I    10.2   -1.3    5.0
H    -4.3   -9.5    4.9
H     4.3    2.4  -10.4
H     7.1    6.1    6.7
H     6.9   -8.4   -3.8
H     8.4    5.1    6.0
H    -4.4    9.0   -5.7
I    -2.5   -8.0    7.9
H     4.5    9.0   -5.7
P    -9.5    0.8    6.5
H     4.6   -9.5    4.9
H    -5.5   -8.5    5.6
H     3.3   10.0   -4.9
H    -1.0   -4.7  -10.6
H    -4.4   -1.6   10.6
I    -5.2   -4.6   -9.3
H     4.5   -1.6   10.6
I     1.3   -5.2   10.4
I    -7.8   -8.6   -0.1
P    -9.6   -6.5    1.4
H    -4.7    2.4  -10.4
I     5.5   -0.4  -10.3
H   -10.0    3.2   -5.2
I    -9.7   -0.8   -6.6
H     8.0    6.7    5.3
H    -8.1   -7.7   -3.8
I    -9.8    6.4   -1.4
N     0.2  -11.6    1.6
I     2.0   -8.7    7.7
C    -0.8    2.2   11.6
H     8.0    8.6    1.3
H   -10.9    2.6   -3.8
I     1.8   -8.4   -8.2
I   -11.6   -0.5   -2.6
C     8.1    6.1    6.2
H    -9.3   -6.8   -3.1
H     8.4   -5.9    6.0
H     8.7   -3.3    7.4
H    -0.8    1.1   11.8
I     3.7    6.4   -9.3
P     3.9   -6.5    9.2
I     1.3    5.8   10.4
H     0.3  -11.7    2.7
I    -3.2   -4.4   10.7
H    -9.9   -4.3    5.3
H    -1.8  -11.8    1.4
I    -3.2   10.3    5.4
P    -0.6  -10.2    6.5
I    -2.6  -11.5   -2.6
H     0.2    7.9   -9.2
H     1.3    2.4   11.8
I    -0.7   10.2   -6.6
I    10.9   -4.9    2.3
H     4.2    4.1  -10.7
N    -8.9   -4.2    7.2
N     4.1   10.0   -5.6
H     1.1  -12.1    1.3
H     7.9   -7.8   -5.2
H    -9.2   -3.3    7.4
N     8.9   -7.7   -3.3
H     7.0   -4.3   -9.1
H    -0.9  -12.2   -0.0
P    -0.5   -3.0   11.9
N     9.0   -4.2    7.2
C     7.9   -8.4   -4.3
I    -0.9    2.9  -11.9
P     8.2    1.0   -9.2
N    -9.0   -7.7   -3.3
H    -1.0    6.3  -10.6
I     8.2   -1.1    9.1
H    -9.5    5.1    6.0
P    -5.0   -6.5    9.2
H    -4.7    4.1  -10.7
H    -1.7    2.7   12.0
N     4.4    3.2  -11.1
H    -3.6    3.1  -11.4
H    -8.9   -8.2   -2.4
C    -0.9  -12.3    1.0
P     8.3    8.3   -4.0
I    -7.0    9.8   -2.8
I     8.3   -8.3    3.9
H    11.5   -4.5   -1.4
N    -4.6    3.2  -11.1
N    -4.8   10.0   -5.6
H    -7.9    6.8    6.8
H     9.0   -8.2   -2.4
I    10.1   -4.8   -5.5
H    -5.6   10.0   -4.9
H     0.4    3.9   11.8
H    -4.1   10.6   -5.2
N     0.4    2.9   12.1
I    -5.2    6.4   -9.3
H     7.1   10.2    1.4
H     2.4    3.0  -11.9
I     6.3   10.5   -2.6
H    -8.8   -4.2   -7.9
I     4.0    2.4   11.7
H    12.0    2.4    3.2
C     8.0    9.7    1.0
H     2.9    9.9   -7.3
P     3.7   -2.5  -11.8
P     3.8   12.0   -1.3
C    -9.9   -4.9    6.2
I   -12.3    3.1    0.2
I   -11.5   -4.4    2.8
I     1.9  -12.2   -2.8
H     8.1    9.8   -0.0
I     6.2   -7.9   -7.7
H    -7.8    9.9    1.3
H    -9.5   -5.9    6.0
I    10.9    6.1    2.3
I     3.8  -12.1    1.2
H     9.1   -4.2   -7.9
