         400
 sphere cut out from bulk 
H    -1.1    1.5    1.3
I    -0.0    0.5   -2.4
H     2.4   -0.9    1.2
C    -1.7    2.2    0.8
H    -2.5    1.7    0.1
I    -1.8   -2.3    1.0
H     0.8   -2.7    1.4
H    -1.2    2.9    0.2
H     2.5   -2.1   -0.3
C     2.7   -1.9    0.8
P    -1.9   -2.1   -2.2
N     1.8   -2.9    1.6
I     2.6    2.7    1.0
I     0.6   -0.2    4.0
P     2.6    2.4   -2.2
H     1.9   -2.8    2.6
N    -2.5    3.0    1.8
H     3.7   -2.1    1.1
H    -3.0    2.3    2.4
H     2.0   -3.9    1.3
I     0.8   -4.0   -2.3
H    -1.9    3.5    2.5
I    -4.5   -0.2   -2.2
H    -3.2    3.6    1.4
I     4.5   -0.2   -2.2
H    -1.3    3.0   -3.9
P    -2.1   -2.0    4.3
P     2.4    2.4    4.3
H     1.5   -1.3   -5.1
H     3.5   -1.8   -3.9
I     0.7    5.1   -2.3
H     2.0    5.2    1.3
I    -4.0    0.6    4.1
H     2.6   -3.2   -4.0
H    -5.3   -2.1    1.1
H    -1.9    1.2   -5.4
N    -1.2    3.1   -4.9
H    -0.2    3.0   -5.2
N     3.1   -2.5   -4.6
I    -3.7    4.3   -2.3
I    -0.2    4.4    4.3
H    -1.1   -6.1    0.2
C     2.3   -1.8   -5.6
I    -0.2   -4.7    4.3
H    -1.8   -5.6    2.5
I    -2.1   -2.4   -5.5
C    -2.1    2.2   -5.6
H    -3.1   -5.4    1.4
I    -3.7   -4.8   -2.3
I     5.0    0.6    4.1
H     0.7    6.3    1.4
N     1.7    6.2    1.6
H    -3.2    2.4   -5.3
I     2.4    2.7   -5.5
C    -6.3   -1.9    0.8
H    -6.6   -0.9    1.2
H    -1.5    4.1   -5.1
H     6.5    1.7    0.1
H     5.9    2.3    2.4
N    -2.5   -6.1    1.8
H    -6.5   -2.1   -0.3
H     2.9   -1.1   -6.2
H    -5.5   -1.8   -3.9
I    -6.4    2.7    1.0
H     5.8    3.6    1.4
I     2.7   -6.4    1.0
H     1.9    6.2    2.6
H     4.0   -3.0   -5.0
H     1.9   -2.6   -6.3
H     2.3   -2.2    6.3
I    -1.9    6.8    1.0
C    -1.7   -6.8    0.8
I     5.3    4.3   -2.3
P    -6.4    2.4   -2.2
I     4.3   -4.0    4.2
H    -1.4   -4.9   -5.1
H    -1.2   -6.1   -3.9
N     6.5    3.0    1.8
H     2.4    7.0   -0.3
H    -2.1    2.4   -6.7
I    -4.7   -4.0    4.2
I     5.3   -4.8   -2.3
P     2.7   -6.7   -2.2
P    -1.9    7.0   -2.2
H    -2.8    2.0    6.7
H     2.5    5.9   -4.0
I     7.2   -2.3    1.0
C     7.2    2.2    0.8
C     2.6    7.1    0.8
H    -5.0   -3.0   -5.0
H    -1.0   -7.5    1.3
P     7.1   -2.1   -2.2
H    -2.4   -7.4    0.1
H    -3.0   -6.8    2.4
N    -1.2   -5.9   -4.9
N    -5.8   -2.5   -4.6
H    -1.7    3.4    6.8
I     4.3    5.1    4.2
H     3.7    6.9    1.1
N    -7.2   -2.9    1.6
I    -2.2   -1.8    7.5
H    -0.2   -6.1   -5.2
H    -7.0   -2.8    2.6
C     2.2   -2.3    7.4
I     2.2    2.1    7.5
H    -7.0   -3.9    1.3
H     1.2   -2.1    7.7
H     5.9   -5.4    1.4
I    -4.7    5.1    4.2
H     7.9    1.5    1.3
H    -6.4   -3.2   -4.0
H    -0.7    1.6    8.0
C    -2.4    2.7    7.4
H     5.8    2.4   -5.3
P    -6.6    2.4    4.3
H     7.1    3.5    2.5
P     2.4   -6.7    4.3
H     7.8    2.9    0.2
P     6.9   -2.0    4.3
H     2.9   -0.4    7.9
P    -2.2    7.0    4.3
H     2.4    8.2    1.2
N     3.1    6.6   -4.6
H     2.5   -3.4    7.6
H    -6.1   -1.1   -6.2
H    -8.2   -2.7    1.4
I     2.5   -6.3   -5.5
H     3.9    6.1   -5.0
H    -5.3    6.9    1.1
N     3.2   -1.4    8.1
N    -1.5    2.0    8.4
I    -0.1    0.6   -8.8
H    -7.0    5.2    1.3
I     0.0   -8.5   -2.4
I    -2.2    6.6   -5.5
C    -6.7   -1.8   -5.6
H     3.5    7.3   -3.9
H     7.1    1.2   -5.4
H     4.2   -1.5    7.8
I    -6.6    2.7   -5.5
H    -1.7   -5.7    6.8
I    -6.3   -6.4    1.0
H    -3.1   -6.7   -5.3
N     6.5   -6.1    1.8
I     6.8   -2.4   -5.5
C    -2.1   -6.9   -5.6
C     6.8    2.2   -5.6
H    -3.2    3.3    7.9
H     7.7    3.0   -3.9
H    -7.5   -1.3   -5.1
P    -2.0   -2.2   -8.7
H     1.8    6.5   -6.3
I    -8.4   -0.2    4.0
I     9.0    0.5   -2.4
H    -4.8   -1.5    7.8
H    -2.1    1.4    9.0
I    -9.0    0.5   -2.4
H     6.0   -6.8    2.4
H    -5.1    6.1   -5.0
P     2.5    2.5   -8.7
H     6.2    2.0    6.7
I    -8.2   -4.0   -2.3
H     7.2   -5.6    2.5
H     1.4    7.8   -5.1
C     2.2    7.2   -5.6
H    -6.7   -2.2    6.3
P    -6.3   -6.7   -2.2
H    -1.1    2.7    9.1
H    -6.6    7.0   -0.3
C    -6.4    7.1    0.8
H    -6.4    5.9   -4.0
H     2.3    6.9    6.3
N    -7.2    6.2    1.6
I     0.5    8.8    4.0
H    -2.0   -6.7   -6.7
N     7.8    3.1   -4.9
H    -1.8   -7.9   -5.4
H     3.1   -1.5    9.1
I     0.7   -4.0   -8.9
H    -7.1    6.2    2.6
H    -7.1   -2.6   -6.3
I     4.4   -0.2   -8.8
H     2.5    5.7    7.6
I     7.1    6.8    1.0
I    -4.6   -0.2   -8.8
H     6.6   -7.4    0.1
I    -0.1    9.6   -2.4
H    -5.5    7.3   -3.9
H     6.9    2.4   -6.7
N    -5.9    6.6   -4.6
I    -8.2    5.1   -2.3
H     7.8   -6.1    0.2
H    -6.1   -0.4    7.9
H     7.5    4.1   -5.1
C     7.3   -6.8    0.8
C    -2.3   -6.4    7.4
N    -5.8   -1.4    8.1
I     0.7   -9.3    4.0
H    -2.7   -7.1    6.7
P     7.1    7.0   -2.2
I     4.5    8.9   -2.2
I    -4.5    8.9   -2.2
I    -3.9   -8.5    4.1
C     2.2    6.7    7.4
H     9.8   -2.7    1.4
H   -10.0    1.5    1.3
C    -6.7   -2.3    7.4
I     6.8   -1.8    7.5
I     0.6    5.1   -8.9
C     6.6    2.7    7.4
H    -3.1   -5.8    7.9
P    -6.6   -6.7    4.3
H     2.5  -10.0    1.2
I    -6.8    2.1    7.5
H     5.9   -6.7   -5.3
H     5.8    3.3    7.9
I     9.6   -0.2    4.0
H     7.6   -4.9   -5.1
H     1.2    6.9    7.7
H     2.9    7.9   -6.2
I     2.2   -7.0    7.5
I    -4.4   -9.2   -2.2
H    -8.3    6.3    1.4
H     7.2    3.4    6.8
I     4.6   -9.2   -2.2
H    -6.6    8.2    1.2
H    -6.5   -3.4    7.6
H   -10.2    2.9    0.2
H     7.8   -6.1   -3.9
H     8.8    3.0   -5.2
I    -6.5   -6.3   -5.5
I    -2.2    7.3    7.5
I     8.8    4.4    4.3
I    -3.8    4.3   -9.0
I     5.1   -8.5    4.1
P     6.8    7.0    4.3
H    -1.1   10.6    1.3
I     0.7   -0.3   10.7
I     9.8   -4.0   -2.3
H    -2.5    1.7  -10.4
I     8.8   -4.7    4.3
I    -3.7   -4.8   -9.0
H     1.6   -2.2  -10.6
H    -5.9   -1.5    9.1
I     6.8    6.6   -5.5
H     2.8   -1.0  -10.6
C   -10.7    2.2    0.8
H    -9.2    3.0   -5.2
N     7.8   -5.9   -4.9
H    -0.6   -7.5    8.0
H    -2.5   10.7    0.1
I    -9.2    4.4    4.3
H     8.0   -7.5    1.3
N    -1.5   -7.0    8.4
I   -10.8   -2.3    1.0
I    -9.1   -4.7    4.3
H    -1.1   -6.3    9.1
P    -6.5    2.5   -8.7
H    -7.8   -2.1    7.7
P     2.5   -6.6   -8.7
P    -2.0   -2.1   10.8
I     9.7    5.1   -2.3
I    -4.0    9.6    4.1
C     6.9   -6.9   -5.6
P   -10.8   -2.1   -2.2
I     5.2    4.3   -9.0
N    10.8   -2.9    1.6
P    -2.0    6.9   -8.7
C     2.7  -11.0    0.8
C    -6.7    7.2   -5.6
H   -10.2    3.0   -3.9
P     2.5    2.4   10.8
P     7.0   -2.2   -8.7
H     2.5  -11.1   -0.3
I    -3.9    0.5   10.7
H     5.9   -5.8    7.9
H     6.9    1.4    9.0
C    -1.8   11.3    0.8
N     7.5    2.0    8.4
H     7.3   -5.7    6.8
I     5.2   -4.8   -9.0
H    11.4   -0.9    1.2
H    -6.7    6.9    6.3
P    -1.8  -11.1   -2.2
N     2.1   -1.6  -11.2
H    -7.1    6.5   -6.3
I    -1.8  -11.4    1.0
H    -6.5    5.7    7.6
H   -11.4    1.7    0.1
N     3.1    7.6    8.1
H    10.9   -2.8    2.6
H     4.1    7.5    7.8
I     5.0    9.6    4.1
H     1.5  -10.3   -5.1
H     6.3   -7.1    6.7
H    11.4   -2.1   -0.3
I    -0.1    4.3   10.8
H     8.3    1.6    8.0
H   -10.9    3.5    2.5
H     9.7    6.3    1.4
H    -1.9   10.2   -5.4
H    10.5   -1.3   -5.1
H     1.5   -0.9  -11.6
H    11.0   -3.9    1.3
N   -10.2    3.1   -4.9
H    -6.1    7.9   -6.2
H     7.0   -6.7   -6.7
I    -0.1   -4.7   10.8
H   -10.1   -6.1    0.2
C     6.7   -6.4    7.4
C    11.6   -1.9    0.8
N    -2.6    1.6  -11.4
H     3.8  -11.2    1.1
H    -4.9    7.5    7.8
H     0.8  -11.8    1.4
H     8.8   -6.1   -5.2
I     5.1    0.5   10.7
P     2.6   11.4   -2.2
H     7.1   -7.9   -5.4
I    11.6    2.7    1.0
H    -6.5  -10.0    1.2
H    -2.4    0.7  -11.7
H    -7.6    7.8   -5.1
N   -11.5    3.0    1.8
H    -2.0   -7.7    9.0
H    -3.1   11.3    2.4
I     2.6   11.7    1.0
H     2.9    8.6    7.9
P    11.6    2.4   -2.2
H    -1.2   12.0    0.2
P    -2.1  -11.1    4.3
C    -6.8    6.7    7.4
H     3.6  -10.8   -3.9
P   -11.1   -2.0    4.3
I     4.4   -4.0   10.6
H    -9.1   -6.1   -5.2
H    10.9    5.2    1.3
N     1.8  -11.9    1.6
H   -10.9    1.2   -5.4
H     3.1    7.5    9.1
H    -0.7    2.4  -12.0
I    -4.6   -4.0   10.6
I    -0.0   -8.5   -8.8
I    -6.7   -7.0    7.5
H     3.0  -10.2   -6.2
H    -6.2   -1.0  -10.6
I    -1.7   -1.9  -12.0
H     2.0  -11.9    2.6
H    -3.6    1.8  -11.6
H   -10.4    4.1   -5.1
H     7.9    2.7    9.1
P    11.3    2.4    4.3
H   -10.8   -5.6    2.5
H    -5.2  -11.2    1.1
I     6.8    7.3    7.5
N    -2.6   12.0    1.8
H     6.5    1.7  -10.4
P     2.3   11.4    4.3
N    10.7    6.2    1.6
C     2.3  -10.9   -5.6
H   -12.0    2.3    2.4
H   -10.2   -6.1   -3.9
I     4.3    5.1   10.6
I     8.9    0.6   -8.8
I     2.8    2.2  -12.0
H     6.5   10.7    0.1
H    -2.0    3.6  -11.9
H   -10.0   -7.5    1.3
C    -1.7    2.6  -12.2
N    -5.9    7.6    8.1
I    -9.0   -8.5   -2.4
H   -10.4   -4.9   -5.1
I    -4.7    5.1   10.6
I     9.0   -8.5   -2.4
I    -9.1    0.6   -8.8
H     3.6   -3.0  -11.7
P    -6.4   -6.6   -8.7
H    11.6   -3.2   -4.0
C   -11.1    2.2   -5.6
I   -11.1   -2.4   -5.5
C    -6.3  -11.0    0.8
H    -9.7    1.6    8.0
H     3.0   -9.5    7.9
H     1.6    6.8  -10.6
C   -10.7   -6.8    0.8
H    -1.3   12.0   -3.9
C    11.3   -1.8   -5.6
H    -5.4  -10.8   -3.9
N   -10.1   -5.9   -4.9
C    -2.2   11.2   -5.6
H   -12.2    3.6    1.4
C     2.9   -2.3  -12.2
H    10.9    6.2    2.6
I    -8.3   -4.0   -8.9
H    10.9   -2.6   -6.3
I   -10.8    6.8    1.0
N     3.2  -11.5   -4.6
I    -8.4    8.8    4.0
H    -6.5  -11.1   -0.3
P    -6.5    2.4   10.8
