         400
 sphere cut out from bulk 
I     0.2    1.4   -0.8
H     1.8   -0.3    1.3
P    -2.0   -0.8   -0.7
C     2.3   -1.1    1.9
I     0.3   -3.1   -0.7
I    -1.9   -0.6    2.5
H     1.5   -1.8    2.3
H     3.0   -1.6    1.3
H     2.7   -0.9   -2.2
H    -1.4    2.0    2.7
H     1.4   -0.9   -3.4
H    -1.8    3.5    0.8
C     2.4   -0.6   -3.3
H    -0.3    3.2    2.7
H    -1.5    2.9   -2.7
N     3.0   -0.4    3.0
H     2.3    0.1    3.6
N    -1.3    3.0    2.8
H     2.6    0.4   -3.4
P     2.5    3.7   -0.7
I    -4.2    1.4   -0.7
H     3.7    0.3    2.7
I    -2.1   -0.9   -3.9
C    -2.1    3.8    1.8
H    -1.8   -4.1    2.0
I     4.7    1.4   -0.7
I     2.3    3.6    2.5
H     3.5   -1.1    3.6
H    -3.1    3.6    2.0
I    -4.2   -3.0   -0.6
H    -1.5    3.3    3.8
C    -2.2    3.4   -3.3
H    -2.9    2.7   -3.7
N     3.2   -1.4   -4.2
H    -1.9    4.9    2.0
I     4.7   -3.0   -0.6
H     3.1   -2.5   -4.1
H    -2.7    4.2   -2.7
H    -1.7   -5.4    0.8
C    -2.0   -5.1    1.8
I     0.9    0.9    5.7
P     2.5   -5.3   -0.7
H    -0.8   -4.2   -4.1
H    -5.3    0.3    2.7
I     0.2    5.9   -0.7
P    -1.8   -0.9    5.7
H     4.2   -1.3   -4.1
H     3.0   -1.2   -5.2
I     2.6    3.9   -4.0
H    -2.7   -4.8   -2.7
H    -1.0    3.4   -5.0
N    -1.5    4.1   -4.4
H    -6.0   -1.6    1.3
H    -0.8    4.8   -4.1
H    -0.2   -5.7    2.7
H    -4.7   -1.3   -4.1
I     2.4   -5.4    2.5
H    -3.1   -5.3    2.0
H    -5.5   -1.1    3.6
N    -1.2   -5.9    2.8
N    -6.0   -0.4    3.0
H    -6.2   -0.9   -2.2
I    -0.2   -3.6    5.7
N    -1.5   -4.9   -4.4
H    -1.5   -6.1   -2.7
C    -2.2   -5.5   -3.3
I     2.6   -5.1   -4.0
H    -1.5   -5.7    3.8
C    -6.7   -1.1    1.9
H    -2.1   -4.4   -5.1
I    -3.6    2.0    5.7
P     7.0   -0.8   -0.7
H     5.8    3.6    2.0
H    -2.2    4.6   -5.1
H    -6.3    0.4   -3.4
N    -5.7   -1.4   -4.2
P     2.6    3.8    5.7
I    -4.3    5.9   -0.6
H    -7.2   -0.3    1.3
C    -6.5   -0.6   -3.3
P    -1.8   -0.7   -7.1
I    -0.2    2.0   -7.1
P    -6.5    3.7   -0.7
I     7.1   -0.6    2.5
I     4.3   -2.5    5.7
H    -6.6    0.1    3.6
H    -1.4   -6.9    2.7
H    -1.0   -5.6   -5.0
H     6.0    2.7   -3.7
I     4.7    5.9   -0.6
I     0.3   -7.5   -0.8
I     0.9   -2.5   -7.1
H    -5.9   -2.5   -4.1
H     1.5    7.2    2.3
I    -4.6   -2.5    5.7
I    -0.2    5.4    5.7
H    -2.9   -6.2   -3.7
I    -6.6    3.6    2.5
H    -7.4   -1.8    2.3
I     6.8   -0.9   -3.9
H     6.2    4.2   -2.7
H    -6.0   -1.2   -5.2
I     5.3    2.0    5.7
H     7.2    3.5    0.8
H     2.3    0.1    7.7
H     2.9    7.4    1.3
C     6.9    3.8    1.8
P     2.7   -5.2    5.7
H     5.9   -5.3    2.0
H     7.5    2.0    2.7
C     6.7    3.4   -3.3
H     3.0    6.5   -4.1
H     6.2   -4.8   -2.7
I     4.3    0.9   -7.1
P    -6.4   -5.3   -0.7
H    -7.6   -0.9   -3.4
P     2.6    3.6   -7.1
H    -1.5    3.3    7.6
C     2.2    7.9    1.9
P    -2.0    8.2   -0.7
H     7.4    2.9   -2.7
H     7.1   -4.1    2.0
I    -6.4    3.9   -4.0
I    -4.7    0.9   -7.1
H     3.5   -1.1    7.7
I    -4.2   -7.5   -0.7
I    -3.6   -3.6   -7.1
N     7.7    3.0    2.8
H     2.7    8.0   -2.2
C     6.9   -5.1    1.8
H     7.1    4.9    2.0
I    -6.6   -5.4    2.5
I    -8.7    1.4   -0.8
N     3.0   -0.4    8.3
H     1.3    8.1   -3.4
I     4.7   -7.5   -0.7
H     1.7    8.7    1.3
I    -1.9    8.4    2.5
H     7.4    3.3    3.8
I    -6.3   -5.1   -4.0
H    -1.4    2.0    8.7
I    -1.9   -0.6    8.8
H     7.2   -5.4    0.8
N    -1.3    3.0    8.5
P     7.1   -0.9    5.7
N     3.2    7.5   -4.2
I    -2.1    8.1   -3.9
C     2.4    8.3   -3.3
I    -8.7   -3.1   -0.7
H    -0.3    3.2    8.7
P    -6.3    3.8    5.7
P     2.7   -5.4   -7.1
H     3.4    7.9    3.6
H     1.5   -1.8    9.0
I     9.2    1.4   -0.8
C     6.8   -5.5   -3.3
H     3.7    0.3    8.7
H     6.0   -6.2   -3.7
H     1.8   -9.3    1.3
H    -5.5   -1.1    7.7
H     3.0   -1.2   -9.0
N     2.9    8.6    3.0
H     6.8   -4.4   -5.1
H    -1.5   -5.7    7.6
H     2.7   -8.5   -3.4
N     7.4    4.1   -4.4
H    -6.0    7.4    1.3
I     5.4   -3.6   -7.1
I    -3.6    5.4   -7.1
I     4.3    6.5    5.7
H     6.8    4.6   -5.1
I     0.8    6.5   -7.1
H     8.7    3.2    2.7
I    -3.6   -7.0    5.7
H     4.2    7.7   -4.1
I     9.2   -3.1   -0.7
H    -5.9    6.5   -4.1
C     2.3   -1.1    9.5
H     2.9    7.8   -5.2
H     3.7   -8.7    2.7
I     2.3    3.6    8.8
I    -4.7    6.5    5.7
H    -1.0    3.4   -9.2
H     2.4   -8.9    3.6
I    -8.1    0.9    5.7
I     0.9   -8.1    5.7
P    -6.3   -5.2    5.7
I    -0.1   -6.9   -7.1
H    -4.8    7.7   -4.1
N     7.5   -4.9   -4.4
P    -1.9   -9.8   -0.7
H     7.9    3.4   -5.0
H     7.5   -6.1   -2.7
P    -1.9    8.1    5.7
H     2.3    9.1    3.6
I    -1.8   -9.6    2.5
H     8.2   -4.2   -4.1
P     7.1   -0.7   -7.1
H     7.5   -5.7    3.8
H    -9.2    3.2    2.7
N     7.7   -5.9    2.8
P    -6.3    3.6   -7.1
H    -6.6    0.1    7.7
H    -5.3    0.3    8.7
H     1.8   -0.3   10.0
N    -6.0   -0.4    8.3
H    -5.5    7.9    3.6
H     8.1    4.8   -4.1
N     3.0   -9.4    3.0
H     3.6    9.3    2.7
H     2.6    9.4   -3.4
H    -2.1   -4.4   -9.1
H    -1.8   -4.1    9.4
N    -5.8    7.5   -4.2
I     5.3    5.4   -7.1
H    -0.2   -5.7    8.7
H    -6.3    8.0   -2.2
I     0.2   10.4   -0.8
C     2.5   -9.6   -3.3
H    -2.2    4.6   -9.1
C     2.3  -10.0    1.9
H    -5.2   -8.7    2.7
N    -1.2   -5.9    8.5
I     5.4   -7.0    5.7
C    -2.1    3.8    9.5
H     1.4   -9.8   -3.4
I    -2.1   -0.9  -10.3
H    -3.1    3.6    9.4
H     2.8   -9.9   -2.2
C    -6.7    7.9    1.9
I    -8.7    5.9   -0.7
N     3.2   -1.4  -10.0
H     7.5   -6.9    2.7
H    -7.4    7.2    2.3
I     2.4   -5.4    8.8
H     3.0   -1.6   10.1
N    -1.5    4.1   -9.8
P     6.9    8.2   -0.7
H    -1.9    4.9    9.4
H    -1.0   -5.6   -9.2
H    10.7   -0.3    1.3
H     8.7   -5.7    2.7
I    -2.1   -9.9   -3.9
H     3.1   -2.5  -10.1
H    -6.0   -1.2   -9.0
P    -6.3   -5.4   -7.1
H    10.5   -1.8    2.3
N    -6.0    8.6    3.0
H    10.3   -0.9   -3.4
H     1.4   -0.9  -10.8
I     9.2    5.9   -0.7
H   -10.4    2.0    2.7
H     8.0   -5.6   -5.0
P   -10.9   -0.8   -0.7
H    -0.8   -4.2  -10.1
H    -5.3    9.3    2.7
C    -2.0   -5.1    9.5
N    -1.5   -4.9   -9.8
H     4.2   -1.3  -10.1
N   -10.2    3.0    2.8
H     3.0  -10.5    1.3
I    -8.1   -2.5   -7.1
I     8.8   -3.6    5.7
P    -1.9    8.3   -7.1
H     1.6  -10.7    2.3
C    -6.6    8.3   -3.3
H     7.4    3.3    7.6
H     2.6    0.4  -10.8
I   -10.8   -0.6    2.5
H    -6.0    7.8   -5.2
H    -9.2   -5.7    2.7
H    -6.3   -8.5   -3.4
H   -10.5    2.9   -2.7
H    -1.4   -6.9    8.7
H    -2.9    2.7  -10.5
H    -3.1   -5.3    9.4
H    -4.7   -1.3  -10.1
H    -0.8    4.8  -10.1
I     7.0    8.4    2.5
C     2.4   -0.6  -11.0
H     3.5  -10.0    3.6
H    -1.8    3.5   10.5
I    -4.3   10.4   -0.7
I     6.8    8.1   -3.9
I     2.6    3.9  -10.3
H   -10.7    3.5    0.8
I     7.1   -0.6    8.8
I    -9.1   -3.6    5.7
H    -9.7   -4.2   -4.1
H    -7.2    8.7    1.3
I     9.8    0.9    5.7
I     4.7   10.4   -0.7
H    -1.5   11.0    2.7
I     0.8    9.9    5.7
C    11.2   -1.1    1.9
I     8.8    2.0   -7.1
N    -5.9   -9.4    3.0
I    -8.7   -7.5   -0.8
P    -1.8   -9.9    5.7
H     3.4    7.9    7.7
N    -5.7   -1.4  -10.0
I    -6.6    3.6    8.8
I     4.3   -8.1   -7.1
H     5.8    3.6    9.4
H    -9.8    4.8   -4.1
H    -6.6   -8.9    3.6
H   -10.5    3.3    3.8
C    -6.7   -1.1    9.5
C    -2.2    3.4  -10.9
H     7.5    2.0    8.7
H    -7.6    8.1   -3.4
H     1.5    7.2    9.0
H   -10.0    3.4   -5.0
H   -10.8   -4.1    2.0
N     3.3  -10.4   -4.2
I     8.7    5.4    5.7
I    -4.6   -8.1   -7.1
I     2.6   -5.1  -10.3
I    -9.1    2.0   -7.1
H    -7.2   -9.3    1.3
I   -11.1   -0.9   -3.9
H     3.0  -10.2   -5.2
H    -6.0   -1.6   10.1
H    -7.4   -1.8    9.0
C   -11.0    3.8    1.8
H     4.3  -10.2   -4.1
H    -6.7    9.1    3.6
H    -6.4    9.4   -3.4
C    11.4   -0.6   -3.3
H    11.3    0.1    3.6
N     7.7    3.0    8.5
H    -6.2   -9.9   -2.2
H    11.7   -0.9   -2.2
I     9.2   -7.5   -0.8
H    -5.9   -2.5  -10.1
H    -1.5    2.9  -11.5
H    -4.7  -10.2   -4.1
H    -1.7   -5.4   10.5
H    -5.4  -10.0    3.6
H     2.4   -8.9    7.7
H   -10.7   -5.4    0.8
P    11.4    3.7   -0.7
C    -6.5   -9.6   -3.3
H   -10.8    4.9    2.0
I     0.3  -12.0   -0.7
I    -9.2    5.4    5.7
P     7.0   -9.8   -0.7
H     7.5   -5.7    7.6
N   -10.5    4.1   -4.4
H    11.6    0.4   -3.4
N   -10.2   -5.9    2.8
H    11.9   -1.6    1.3
I    11.3    3.6    2.5
H     2.3    9.1    7.7
P    -1.8   -9.7   -7.1
H    -5.9  -10.5    1.3
P     7.1    8.1    5.7
C   -11.2    3.4   -3.3
C    -6.6  -10.0    1.9
I     7.1   -9.6    2.5
P   -10.8   -0.9    5.7
H     6.8   -4.4   -9.1
H     2.9    7.8   -9.0
I    -6.6   -5.4    8.8
C   -11.0   -5.1    1.8
P    -2.0   -0.8   12.1
H     5.9   -5.3    9.4
H     6.8    4.6   -9.1
H    -1.5   11.9   -2.7
I     0.2    1.4   12.2
H     2.7   -0.9  -12.0
N     2.9    8.6    8.3
I    -1.9    8.4    8.8
N   -10.4   -4.9   -4.4
N    11.9   -0.4    3.0
H   -10.4   -6.1   -2.7
H    -5.5    7.9    7.7
C     6.9    3.8    9.5
H    -7.2   -0.3   10.0
H     6.0    2.7  -10.5
I     6.8   -0.9  -10.3
I     9.8   -2.5   -7.1
H     3.0    6.5  -10.1
N    -1.3   12.0    2.8
C    -2.2   -5.5  -10.9
H    -9.9   -5.6   -5.0
H     7.1   -4.1    9.4
H   -10.4   -5.7    3.8
I     0.3   -3.1   12.1
H    -0.3   12.2    2.7
H    -6.3    0.4  -10.8
H    -2.7    4.2  -11.5
H    -2.9   -6.2  -10.5
H     3.1  -11.4   -4.1
C     2.2    7.9    9.5
I    -8.1    6.5   -7.1
N    -5.7  -10.4   -4.2
H     7.9    3.4   -9.2
H    -3.0   11.7   -3.7
P    11.5   -5.3   -0.7
