         400
 sphere cut out from bulk 
P     0.4   -0.0    0.1
I    -2.2   -0.5   -1.8
I    -1.6    0.5    2.5
I     0.3    3.2   -0.7
I     0.5   -3.2    0.7
I     2.4   -0.5   -2.5
I     2.9    0.3    2.0
H    -3.1   -2.3   -0.3
H    -2.3    3.4   -0.4
H     1.0    2.9   -3.1
H     3.7   -2.3    0.2
H    -3.9    1.8    0.3
H    -0.6   -3.2   -3.1
H     1.3    3.1    3.0
H     1.2   -3.2    3.3
H     1.2    1.7   -4.2
H    -0.7    2.3    4.1
N    -3.5   -3.2    0.1
H    -3.4   -3.2    1.1
N    -3.3    3.6   -0.4
H     1.5   -2.3   -4.1
H    -0.8   -2.3    4.3
C    -4.1    2.8    0.6
H    -3.7    3.0    1.6
H    -3.1   -4.0   -0.3
N     1.3    2.7   -4.0
H     4.0    3.1    0.5
H    -0.9   -2.2   -4.6
H    -3.6    3.5   -1.4
C     4.2   -3.2   -0.3
C    -0.5   -3.2   -4.2
C     1.2    3.2    4.1
H     1.7    2.3    4.5
H     4.1   -3.1   -1.4
N     1.1   -3.2    4.3
N    -0.2    3.2    4.5
H     3.7   -4.1    0.1
H     1.6   -2.4    4.7
H     5.2    1.8    0.3
H     2.3    3.0   -4.1
N     1.0   -3.1   -4.5
C    -0.4   -3.2    4.7
H    -3.3    4.7   -0.2
H    -0.7    4.0    4.1
C     5.1    2.8    0.6
H    -5.4   -2.3    0.2
H     1.5   -4.0   -4.1
C    -5.0   -3.2   -0.3
P    -4.1    0.1   -4.3
H    -0.5    3.3   -4.9
H    -0.8   -4.1    4.3
H    -5.1    3.1    0.5
P    -4.2   -0.0    4.4
H    -5.1   -3.1   -1.4
C     0.5    3.5   -5.0
H    -0.9   -4.0   -4.6
H     1.7    4.0    4.5
I    -4.0   -3.2    3.7
H    -0.3    3.2    5.5
P     0.5    6.3   -0.0
H     1.5   -4.0    4.7
P     0.5   -6.4   -0.0
I    -1.5    0.5   -6.2
N     5.6   -3.2    0.1
H     5.5    3.0    1.6
H     1.1   -3.1   -5.5
I    -1.6    5.8    2.4
H     6.1   -2.3   -0.3
I    -2.2   -5.8   -1.9
I    -6.2    0.3    2.0
I    -4.3    3.2   -3.7
H    -0.4   -3.2    5.8
H     5.7   -3.2    1.1
H     0.7    4.6   -4.8
P     5.0   -0.0    4.4
P     5.1    0.1   -4.3
H     5.6    3.5   -1.4
H    -5.4   -4.1    0.1
I     2.4   -5.8   -2.6
I     2.5   -0.6    6.3
I     3.0    5.9    1.8
I     4.8    3.2   -3.7
N     5.9    3.6   -0.4
H     0.9    3.3   -6.0
I     5.2   -3.2    3.7
I    -4.1   -3.1   -5.0
I     7.0   -0.5   -1.8
I    -6.8   -0.5   -2.5
I    -2.2   -0.5    6.9
I    -4.3    3.1    5.0
H     6.1   -4.0   -0.3
H     5.8    4.7   -0.2
I    -2.2    6.9   -1.9
I     3.0    0.5   -6.8
I    -1.5   -6.9    2.4
I     4.9    3.1    5.0
H     6.9    3.4   -0.4
I     3.1   -6.8    1.8
I     2.3    6.9   -2.6
I     5.0   -3.1   -5.0
I     7.5    0.5    2.5
H    -6.8    3.0   -4.1
I    -6.1    5.9    1.8
I     0.3    3.1    8.1
P    -4.1    6.3    4.3
H    -3.2    3.2   -7.4
H    -3.3   -8.1   -0.2
P    -4.1   -6.4    4.3
P    -8.7   -0.0    0.1
I     0.7   -3.1   -8.1
P    -4.1   -6.3   -4.5
P     0.4    0.1   -8.8
P     0.4   -0.0    8.8
P    -4.2    6.4   -4.5
I     2.5   -5.9    6.2
H    -7.8    3.1    3.0
H    -7.4    2.3    4.5
I    -1.7    6.1   -6.4
H    -7.7   -2.3   -4.1
H    -4.4   -3.3    7.2
H     4.5   -2.7   -7.4
P     5.0    6.3    4.3
H    -7.9    1.7   -4.2
H    -4.6   -2.7   -7.4
I    -6.1    0.5   -6.8
H     4.7   -3.3    7.2
H    -8.0   -3.2    3.3
P     5.0   -6.4    4.3
H    -8.2    2.9   -3.1
P     5.0   -6.3   -4.5
N    -7.8    2.7   -4.0
I    -6.7   -0.6    6.3
H    -7.6   -2.4    4.7
I    -8.6   -3.2    0.7
H    -3.1    8.7   -0.3
P     5.0    6.4   -4.5
I     7.0   -5.8   -1.9
H    -2.7    2.4    8.6
I    -6.0   -6.8    1.8
I    -6.7   -5.8   -2.6
I    -2.1   -6.1    6.7
H     3.6    8.7    0.1
I    -1.6   -6.7   -6.4
H    -4.4    3.7    7.5
H     0.7   -8.1   -4.8
C    -7.9    3.2    4.1
H    -3.1   -3.2    8.3
I    -8.9    3.2   -0.7
H     3.2   -2.8   -8.5
I     0.5    9.5    0.7
I     2.5    6.8    6.2
C    -3.5    2.9   -8.4
P     9.6   -0.0    0.1
H    -7.4    4.0    4.5
I     0.3   -9.6   -0.7
H    -7.7   -4.0   -4.1
H     4.7    3.7    7.5
H    -2.2   -9.3   -0.4
I     3.0    5.9   -6.9
H    -4.3    2.2   -8.3
H    -0.6   -8.7    4.1
N    -3.2   -9.1   -0.4
H     8.3   -2.3    4.3
H     8.6   -3.2   -3.1
N    -8.1   -3.2    4.3
H    -0.9    8.6    4.3
H     8.5    2.3    4.1
H     8.2   -2.2   -4.6
H    -2.7    2.5   -9.0
I    -2.1    6.6    6.7
H     4.3   -1.5   -8.6
H     1.4    8.7   -4.1
N     4.2   -2.6   -8.4
H    -7.6   -4.0    4.7
C    -4.1   -3.5    8.2
N    -8.1   -3.1   -4.5
I     7.6    5.8    2.4
I     7.0   -0.5    6.9
I     7.6    0.5   -6.2
H    -1.0    8.7   -4.6
H     4.8    2.2   -8.3
I     6.9    6.9   -1.9
H     1.8   -8.7    4.5
I     9.4    3.2   -0.7
H    -4.8   -1.5   -8.6
H    -3.5   -9.2   -1.4
H     5.9   -8.1   -0.2
H     1.5    8.7    4.7
I     0.7   -3.2    9.4
I     0.3    3.3   -9.5
I    -6.8    6.9   -2.6
H    -0.6    9.5   -3.1
H     3.2   -2.9    9.1
N    -4.9   -2.6   -8.4
H     6.0    3.2   -7.4
H     4.3   -1.7    9.0
H    -3.3    4.7    8.3
H     1.4   -9.6    3.0
C     8.7   -3.2   -4.2
H     1.1    9.5    3.3
H    -3.0   -3.1   -9.2
I     3.0   -6.8   -6.9
N    -4.1    4.0    8.4
H     8.3   -4.1    4.3
C    -3.5    2.8    9.1
I     9.6   -3.2    0.7
N    -3.6    9.5    0.1
H    -3.5    9.5    1.1
H     8.5    4.0    4.1
C     5.0   -3.5    8.2
H    -8.0   -3.1   -5.5
H    -5.5    8.7    0.1
H     8.2   -4.0   -4.6
H     1.0   -9.8   -3.1
H    -4.9   -1.7    9.0
H    -4.3    2.0    9.2
C     4.1    9.6   -0.3
H     4.1   -9.6    0.5
N     4.2   -2.7    9.1
C    -0.5    9.6   -4.2
H    -3.6   -9.7    1.6
C     8.8   -3.2    4.7
C     0.6   -9.2   -5.0
H    -4.2   -4.5    8.4
H     4.0    9.6   -1.4
H     8.6    3.3   -4.9
C     1.3   -9.6    4.1
N     8.9    3.2    4.5
N     1.0    9.5    4.3
C     5.6    2.9   -8.4
N    -0.1   -9.5    4.5
C    -8.6    3.5   -5.0
I     7.6   -6.9    2.4
H     4.8    2.0    9.2
N     5.1    4.0    8.4
H     6.0    8.7   -0.3
N     0.9    9.6   -4.5
H     4.3    4.5   -8.6
C    -0.4    9.5    4.7
C    -4.0   -9.9    0.6
H    -9.7   -3.2   -3.1
H    -0.5   -9.4   -4.9
P    -8.6   -6.4   -0.0
H    -8.2    3.3   -6.0
H    -5.9   -2.8   -8.5
C    -4.1   -3.3   -9.3
P    -8.7    6.3   -0.0
N    -4.9   -2.7    9.1
H     4.9   -4.5    8.4
H    -8.5    4.6   -4.8
P     0.4    6.3    8.7
N    -4.0    4.1   -9.1
H     6.1   -3.2    8.3
H     2.4   -9.7   -4.1
C    -5.0    9.6   -0.3
P     0.5   -6.4    8.7
N    -9.3    3.2    4.5
H    -5.1   -9.6    0.5
I    -6.6   -5.9    6.2
H    -4.8    4.5   -8.6
P     0.5   -6.3   -8.8
N     1.4  -10.0   -4.0
I    -2.1   -0.4  -10.6
N     5.9   -9.1   -0.4
H    -3.1   10.4   -0.3
H     4.3    4.4    9.0
H    -9.8    2.3    4.1
H     5.6   -9.2   -1.4
H     8.9    3.2    5.5
H    -5.1    9.6   -1.4
C    -9.6   -3.2   -4.2
H     8.7   -3.2    5.8
H    -3.3    4.8   -9.2
P     0.4    6.4   -8.8
H    10.1    2.9   -3.1
I    -4.0    9.5    3.7
H    -4.2   -4.4   -9.1
H     6.4    2.4    8.6
I    -6.2    5.9   -6.9
H    -0.2   -9.5    5.5
I    -4.2   -9.5   -3.7
I   -10.7    0.5    2.5
N     5.5    9.5    0.1
H    -3.2    3.1   10.1
H     3.6   10.4    0.2
C    -9.5   -3.2    4.7
C     5.6    2.8    9.1
H   -10.0   -2.3    4.3
H    -4.8    4.4    9.0
H     1.1    9.6   -5.5
C     5.1   -9.9    0.6
C     5.1   -3.3   -9.3
I     3.0    0.4   10.7
H     5.6    9.5    1.1
H     5.8    4.7    8.3
H    -0.5    9.5    5.8
H    -0.6  -10.4    4.1
H     1.0   -9.4   -6.0
N     5.1    4.1   -9.1
H    -5.9   -2.9    9.1
H     5.5   -9.7    1.6
H     1.4   10.4   -4.1
H     4.9   -4.4   -9.1
H    10.3   -3.2    3.3
H   -10.0   -2.2   -4.6
I     4.9   -9.5   -3.7
H    -0.9   10.4    4.3
H    10.5    3.1    3.0
H    -9.7    3.3   -4.9
H    10.4    1.7   -4.2
H    -9.8    4.0    4.1
H     6.5    2.5   -9.0
H    -9.4    3.2    5.5
I    -6.7    6.8    6.2
I     5.1    9.5    3.7
I    -1.5    0.4   11.3
H     4.5   -2.9   10.1
H     6.1   -3.1   -9.2
H    -1.0   10.5   -4.6
C     9.7    3.5   -5.0
I    -6.1   -6.8   -6.9
H     1.5   10.4    4.7
I   -11.3   -0.5   -1.8
I     2.5   -0.5  -11.2
I     7.1   -6.1    6.7
H    -4.7   -2.9   10.1
H     1.8  -10.5    4.5
N    10.1   -3.1   -4.5
N    10.4    2.7   -4.0
P     9.6    6.3   -0.0
N    10.2   -3.2    4.3
I     7.5    6.1   -6.4
I    -4.2   -9.6    5.0
P     9.7   -6.4   -0.0
H    10.6   -2.3   -4.1
H   -10.0   -4.1    4.3
H    -3.9  -10.9    0.3
C    10.4    3.2    4.1
I    -4.2    9.6   -5.0
H    -9.6   -3.2    5.8
H    -4.4    3.8  -10.1
H     6.9   -9.3   -0.4
H    -4.4   -3.1  -10.4
H   -10.0   -4.0   -4.6
H     4.8    3.8  -10.1
I     7.0    6.6    6.7
I    11.5   -0.5   -2.5
H    -5.5   10.4    0.2
H     4.7   -3.1  -10.4
H     9.8    4.6   -4.8
H     1.3  -11.0   -4.2
I     4.9   -9.6    5.0
H   -11.4    3.4   -0.4
I     7.5   -6.7   -6.4
I     5.0    9.6   -5.0
H    10.7   -2.4    4.7
H     5.8    4.8   -9.2
H    10.8    2.3    4.5
H    -3.3   -8.0    8.3
H     0.9    3.2   11.5
H     6.0   10.4   -0.3
H    10.6   -4.0   -4.1
H    10.3   -3.1   -5.5
I    -8.4   -3.1   -8.1
H     5.2  -10.9    0.3
H     5.9    3.1   10.1
H    -0.4   -3.1  -11.7
H    10.1    3.3   -6.0
H    -7.4   -8.7    4.5
I    12.1    0.3    2.0
I   -10.6    0.5   -6.2
H    10.7   -4.0    4.7
P    -8.7    0.1   -8.8
H    -7.7    8.7   -4.1
I    -6.2    0.4   10.7
P    -8.7   -0.0    8.8
I   -10.7    5.8    2.4
I    -8.9    3.1    8.1
H    -3.1   -9.5   -7.4
H   -12.2   -2.3   -0.3
I     2.9    5.8   10.6
H    10.9    4.0    4.5
H    -0.3    3.3  -12.0
H    -4.3   -9.0    7.5
H    -7.6    8.7    4.7
I    -2.0   -5.9  -10.8
H     1.1   -3.3   12.0
H    -4.3    8.2    8.4
H    11.5    3.0   -4.1
H    -6.8   -9.7   -4.1
I     0.3   -9.6    8.1
I    -2.2   12.2   -1.8
I    -1.5  -12.2    2.5
H    -3.2   -7.9   -9.2
I     0.7    9.6   -8.1
H    -8.4   -8.1   -4.8
H     4.4   -8.2   -8.6
H     4.8   -9.0    7.5
H    -7.8   -9.6    3.0
P     0.4   12.7    0.1
