         400
 sphere cut out from bulk 
H    -0.3   -0.2   -0.4
N    -1.0    0.2    0.2
H    -0.8   -0.2    1.2
H    -1.9   -0.2   -0.1
C    -1.0    1.7    0.2
H    -0.0    2.1    0.6
H    -1.1    2.0   -0.8
I     1.2   -1.4   -2.0
H    -1.8    2.1    0.8
I    -0.1   -1.6    3.1
H     3.0   -0.5    1.8
I     2.9    2.3    0.2
H    -0.8   -1.9   -3.4
I    -3.9   -1.5   -0.6
P     3.6    0.8   -2.5
C     3.6   -0.8    2.7
H     2.5   -2.5    3.1
H     3.2   -0.2    3.6
I    -2.9    2.3   -3.1
N    -1.4   -2.3   -4.2
N     3.5   -2.2    2.9
I    -2.9    2.2    3.5
H    -2.3   -1.7   -4.2
H    -4.4   -0.5    2.6
H     3.9   -2.7    2.1
I     1.7    2.5   -4.3
H    -1.7   -3.2   -3.9
H     4.7   -0.5    2.6
I     5.2   -1.5   -0.6
I     1.6    2.3    4.7
P    -1.0    0.6    5.4
P     3.5   -3.7   -2.4
H    -0.4   -1.2   -5.7
H    -0.0   -5.9   -0.2
C    -0.7   -2.3   -5.5
P     3.6    4.0    2.8
H     4.0   -2.5    3.8
P    -5.5    0.8   -2.5
H    -1.1   -5.9    1.2
I     2.9   -5.4    0.2
H     0.2   -2.9   -5.4
C    -5.5   -0.8    2.7
H    -1.8   -5.9   -0.5
H    -5.2   -2.7    2.1
H     2.7    5.1   -2.7
H    -6.0   -0.5    1.8
C    -1.0   -6.3    0.2
P    -1.0    3.9   -5.1
I     4.3   -1.5   -4.7
H    -1.3    4.7    4.5
I    -6.2    2.3    0.2
N    -5.6   -2.2    2.9
H     4.0    5.1   -1.6
P    -1.0   -3.9    5.4
H    -5.1   -2.5    3.8
I     1.1    6.3    2.5
I    -0.1    6.2   -2.8
I    -4.8   -1.5   -4.7
H    -5.9   -0.2    3.6
I    -2.9   -5.4   -3.2
I    -3.4   -1.6    5.8
H    -1.4   -2.7   -6.2
N     3.6    5.5   -2.5
I     1.6   -5.4   -4.3
I    -2.9   -5.5    3.5
P    -5.6   -3.7   -2.4
H     7.2   -0.2   -0.1
I     6.2    2.3   -3.1
I     0.6   -1.6    7.2
H     0.0    4.7    5.7
P    -5.5    4.0    2.8
H    -5.1    5.1   -1.6
H    -0.3    7.4    0.9
I     1.7   -5.5    4.7
I     6.2    2.2    3.5
H    -0.8    7.4   -0.8
I    -4.0    6.2    0.9
H     4.2    5.2   -3.3
C    -1.0    5.0    5.5
H     7.3    2.1    0.8
H    -1.9    7.4    0.4
H    -6.6   -2.5    3.1
N    -1.0   -7.7    0.2
N    -1.0    7.8    0.2
H     3.9   -0.3   -6.8
H     2.8    1.9   -7.1
H    -4.9    5.2   -3.3
H     2.9    7.2   -1.6
H    -1.7    4.7    6.3
H     3.4    1.9    7.1
I     5.1    6.2    0.9
N     8.1    0.2    0.2
N    -5.5    5.5   -2.5
C     3.5    7.0   -2.5
H    -0.3   -8.1    0.9
H     6.8   -1.7   -4.2
H     2.7   -0.4    7.8
H    -0.7   -8.2   -0.8
I    -6.2   -5.4    0.2
I    -1.6    2.3   -7.8
C     8.1    1.7    0.2
I    -7.9   -1.4   -2.0
H     8.0    2.0   -0.8
H    -0.4    6.9    4.7
I     5.7   -1.6    5.8
H    -1.9   -8.1    0.4
H     8.3   -0.2    1.2
P     3.6   -7.1    2.8
H     2.7   -0.3   -8.1
I    -1.7    2.2    8.0
N    -1.0    6.5    5.4
H     4.3   -0.4    7.4
N     3.7    0.1   -7.8
H    -5.2   -0.3   -6.8
H    -6.4    5.1   -2.7
H     3.1    7.3   -3.4
C     3.6    1.6   -7.7
I     6.2   -5.4   -3.2
P    -1.0   -7.1   -5.1
N     3.6    0.0    8.1
H    -4.8   -0.4    7.4
H     8.8   -0.2   -0.4
I     0.7   -1.5   -8.7
H    -4.5    1.9   -7.3
H     4.6    1.9   -7.3
I    -7.4    2.5   -4.3
H    -2.0    6.9    5.3
H     2.9   -8.3   -1.6
C     3.5    1.5    8.1
H     4.5    7.4   -2.3
I    -3.4    6.2   -5.5
H    -4.6    7.4   -2.3
H     7.4   -3.2   -3.9
I     6.2   -5.5    3.5
N     7.7   -2.3   -4.2
I    -7.5    2.3    4.7
H     8.3   -1.9   -3.4
I     4.5    6.3    5.1
H    -5.7    1.9    7.1
C    -5.6    7.0   -2.5
I    -4.6    6.3    5.1
H     9.0    2.1    0.6
H     2.7    1.8    8.7
C    -1.0    9.3    0.2
H    -9.4   -0.2   -0.4
H    -9.1    2.1    0.6
P    -5.5   -7.1    2.8
H    -0.6    6.9    6.3
H     3.1   -8.2   -3.4
H     7.3   -5.9   -0.5
I     0.5    6.3   -7.0
N    -5.4    0.1   -7.8
H     4.4   -0.3   -8.4
H     3.4   -5.9   -6.7
C     3.5   -8.5   -2.5
P     3.6    8.5    2.8
I    -1.6   -5.4   -7.7
H     4.5   -8.1   -2.3
H    -0.0    9.6   -0.2
I     9.0   -1.6    3.1
C    -5.5    1.6   -7.7
H     3.5    1.9   -8.8
H    -4.6   -8.1   -2.3
I     1.2   -9.2    2.5
H    -4.7   -0.3   -8.4
H    -6.3    1.9   -7.1
H    -6.2    7.2   -1.6
I    -0.1   -9.3   -2.8
H    -1.1    9.6    1.2
N    -5.5    0.0    8.1
H     3.8   -0.4    9.0
P     8.1    0.6    5.4
H     4.5    1.9    8.5
H    -1.8    9.6   -0.5
H    -4.6    1.9    8.5
H    -0.4   -8.7    4.7
I    -9.2   -1.6    3.1
H     2.7   -5.9    7.5
P    -1.0    8.4   -5.1
C    -5.5    1.5    8.1
I    -1.7   -5.5    8.1
H    -9.9   -0.2    1.2
H     8.0   -5.9    1.2
H    -6.0    7.3   -3.4
I     5.7    6.2   -5.5
H    -1.4   -2.7    9.6
H    -6.4   -0.4    7.8
N   -10.1    0.2    0.2
H     7.7    4.7    4.5
H    -0.5   -1.3   10.1
I    -4.0   -9.3    0.9
I    -7.5   -5.4   -4.3
C   -10.1    1.7    0.2
C     8.1   -6.3    0.2
H    -6.3   -0.3   -8.1
H     7.7   -2.7   -6.2
C     8.4   -2.3   -5.5
H     7.2    7.4    0.4
H    -2.0   -8.7    5.3
P     8.1    3.9   -5.1
I    -7.4   -5.5    4.7
H   -10.2    2.0   -0.8
I    -7.9    6.3    2.5
H    -5.3   -0.4    9.0
P    -0.9    0.6  -10.4
H     8.6   -1.2   -5.7
H    -6.2   -8.3   -1.6
P    -5.5    8.5    2.8
P     8.1   -3.9    5.4
C    -5.6   -8.5   -2.5
C     3.6   -6.2   -7.7
I     2.9   10.1    0.2
I    10.2   -1.4   -2.0
N    -1.0   -9.0    5.4
H    -5.7   -5.9   -6.7
H     2.8   -5.8   -8.4
H    -5.6    1.9   -8.8
H    -9.8   -1.9   -3.4
C    -0.8   -2.3   10.3
I     5.1   -9.3    0.9
I    -3.3   -1.6  -10.0
H    -6.0   -8.2   -3.4
H     4.5   -5.9    7.8
H    -0.6   -8.6    6.3
H    -4.6   -5.9    7.8
H    -8.9   -2.9   -5.4
H     7.4    4.7    6.3
I     0.5    6.2    8.8
H    -1.6    4.8   -9.6
H     0.1   -2.9   10.4
C     3.5   -6.2    8.1
H     9.1   -5.9   -0.2
H    -9.1   -5.9   -0.2
H     7.2   -8.1    0.4
H     2.7    7.4   -7.5
H    -4.5   -5.8   -8.0
H     4.5   -5.8   -8.0
H    -6.4    1.8    8.7
H     3.8    7.4    7.1
N     3.6  -10.0   -2.5
I    -2.9   10.0    3.5
H   -11.0   -0.2   -0.1
C     8.1    5.0    5.5
I     7.5    2.3   -7.8
I    -2.9   10.1   -3.2
I     1.6   10.1   -4.3
H     4.3    7.4   -7.1
H     2.7  -10.4   -2.7
P    -0.9   -3.8  -10.4
H     9.3   -2.9   -5.4
H   -10.9    2.1    0.8
H     8.3    7.4   -0.8
I     7.4    2.2    8.0
I    -8.4   -1.6    7.2
H    -9.5   -1.2   -5.7
N     8.1   -7.7    0.2
H     7.1    6.9    5.3
N     8.1    7.8    0.2
H     0.1    4.8  -10.2
I     1.7   10.0    4.7
H     4.0  -10.4   -1.6
I     8.9    6.2   -2.8
C    -5.5   -6.2   -7.7
I    -3.4   -9.3   -5.5
H    -4.8    7.4   -7.1
H     2.7   -8.1   -7.5
H     3.3   -5.9    9.1
H     2.6    7.4    8.3
P    -1.0    3.8   10.7
H    -6.4   -5.9    7.5
H     3.8   -8.1    7.1
P   -10.1    0.6    5.4
C    -9.8   -2.3   -5.5
I     4.5   -9.3    5.1
N     3.6   -7.7   -7.7
H     8.8    7.4    0.9
I    -9.2    6.2   -2.8
I     1.7    2.3  -11.1
N   -10.5   -2.3   -4.2
I    -4.6   -9.3    5.1
H     4.3   -8.1   -7.1
H    -5.3    7.4    7.1
C    -0.9    5.1  -10.3
N     3.6    7.8   -7.7
I     0.6   -9.2   -7.0
H     4.2  -10.3   -3.3
C    -5.6   -6.2    8.1
I     5.8   -1.6  -10.0
H    -5.1  -10.4   -1.6
H    -9.1    4.7    5.7
H     8.3   -8.2   -0.8
N    -5.5  -10.0   -2.5
H     9.1    4.7    5.7
N     3.5   -7.7    8.1
N     8.1    6.5    5.4
H    -0.6    6.9   -9.5
N     3.5    7.8    8.1
H    -4.8   -8.1   -7.1
H    -1.3  -10.8    4.5
I     1.7    2.4   11.5
C   -10.1   -6.3    0.2
C    -1.0  -10.5    5.5
H   -10.2   -5.9    1.2
I    -6.2   10.1    0.2
H    -4.9  -10.3   -3.3
H   -10.7   -3.2   -3.9
I    10.7    2.3    4.7
I    10.8    2.5   -4.3
H     2.6   -8.1    8.3
P     8.1   -7.1   -5.1
P   -10.0    3.9   -5.1
H    -2.3   -1.8   11.6
N    -1.5   -2.3   11.6
H    -9.4    7.4    0.9
I     4.3   -1.5   11.1
H    -6.3   -5.8   -8.4
H     8.8   -8.1    0.9
H     8.7    6.9    4.7
H    -5.3   -8.1    7.1
I     7.5   -5.4   -7.7
P   -10.1   -3.9    5.4
H     3.8    7.5   -8.7
H     7.3    9.6   -0.5
I    -8.4   -1.5   -8.7
H     4.2    7.4    8.7
I     9.7   -1.6    7.2
I    12.0    2.3    0.2
H     0.0  -10.8    5.7
I    -4.8   -1.5   11.1
H     3.4    9.6   -6.7
N    -5.5   -7.7   -7.7
I     5.7   -9.3   -5.5
H    11.6   -2.5    3.1
I     7.4   -5.5    8.1
H   -11.4   -1.7   -4.2
I    10.2    6.3    2.5
H    12.1   -0.5    1.8
H   -10.4    4.7    4.5
I     6.2   10.0    3.5
I     6.2   10.1   -3.2
C     8.1    9.3    0.2
H    -9.8    7.4   -0.8
N    -5.5    7.8   -7.7
H    -5.8   -5.9    9.1
N    -0.9    6.6  -10.4
H    -1.3    4.7  -11.3
H    -6.4    7.4   -7.5
H   -10.9   -5.9   -0.5
H     7.1   -8.7    5.3
P     3.6  -11.5    2.8
I    -7.9   -9.2    2.5
H    -4.9    7.4    8.7
I     1.7   -5.4  -11.1
H     3.9   -8.1   -8.7
H    -9.4   -8.1    0.9
H     2.7    9.6    7.5
H   -10.5   -2.7   -6.2
N    -5.6   -7.7    8.1
H    -1.7   -3.3   11.9
I    -3.5    6.2   10.3
N    -5.6    7.8    8.1
P     3.5   11.8   -2.4
C   -10.1    5.0    5.5
H     7.9    9.6    1.2
H    -6.4  -10.4   -2.7
H     7.6   -2.7    9.6
H    -0.8   -1.9   12.4
H    -1.7  -10.8    6.3
H    -9.5    6.9    4.7
H    -5.2    7.5   -8.7
I   -12.0    2.3   -3.1
C     3.6    9.3   -7.7
H     8.5    6.9    6.3
H     4.2   -8.1    8.7
H     3.3   -0.2  -12.3
N   -10.1   -7.7    0.2
I    10.7   -5.4   -4.3
I   -12.0    2.2    3.5
I    -8.5    6.3   -7.0
H    -1.9    6.9  -10.5
N   -10.1    7.8    0.2
P    -1.0  -11.6   -5.1
P     8.1    8.4   -5.1
H    -6.4   -8.1   -7.5
I     0.5   -9.3    8.8
H    -0.5   -8.6   -9.5
H    -9.8   -8.2   -0.8
H    12.3   -0.2    3.6
I    -1.6   10.1   -7.7
C     3.5    9.3    8.1
I    -2.9    2.3  -12.3
I    -0.1   -1.5  -12.7
I     1.5   -5.5   11.5
H    -6.5    7.4    8.3
P    -1.0   11.7    5.4
P    12.6    0.8   -2.5
H    -4.9   -8.1    8.7
H     4.1   -2.4  -12.0
P    -1.0   -7.2   10.7
H    -5.2   -8.1   -8.7
