         400
 sphere cut out from bulk 
H    -1.0    0.3   -1.4
H    -1.8   -0.1    0.0
N    -1.7    0.6   -0.8
H    -0.5    2.0    0.3
I     1.7   -0.8   -0.8
C    -1.5    2.0   -0.2
H    -2.7    0.6   -1.3
I    -1.8   -2.2    1.5
H    -1.4    2.7   -1.0
H    -2.3    2.2    0.5
P     0.3   -3.6   -0.5
H     1.2   -0.6    3.6
I     1.9    3.1    1.6
P     3.8    1.6   -0.5
H     1.9   -2.0    3.1
H     2.8   -0.6    3.1
N     2.1   -1.1    3.6
H     2.3   -0.7   -3.8
I    -1.7   -2.9   -2.9
I    -1.9    1.9    3.7
I    -1.3    1.3   -4.5
I     2.6    3.1   -3.0
H     1.3    0.1   -5.1
I     2.1   -4.3    2.1
C     2.2   -0.4   -4.8
H    -4.3   -3.2    0.5
P    -3.4   -1.0    4.1
I    -5.0   -0.0   -2.4
I     5.1    0.0    2.1
H     4.8   -3.0    0.5
P     0.3    4.2    4.0
C     2.6   -1.3    5.0
H     3.1    0.2   -5.1
H     1.9    5.7    0.4
I     2.4   -5.0   -2.5
I    -1.2    5.4   -2.5
H    -5.3   -2.5   -1.7
H     1.5   -2.3   -5.4
P    -3.3   -1.1   -5.0
I    -5.8    0.0    2.1
H     1.9   -1.9    5.5
H     2.8   -0.4    5.5
I    -4.8    3.9   -0.1
H    -4.2    3.1    3.6
N     2.3   -1.7   -5.6
H    -4.5   -4.0   -1.8
H    -0.6   -4.9    4.0
H    -3.7    3.2   -4.1
H     4.7   -3.9   -1.7
H     3.5   -1.9    4.9
I     5.9   -0.0   -2.4
H     5.6   -2.5   -1.7
C    -5.3   -3.6    0.1
P     0.3    4.1   -5.0
I    -1.1   -1.9    6.0
N    -5.3   -3.5   -1.4
I    -1.2   -6.5   -0.1
I    -1.5    6.1    2.1
C     5.6   -3.6    0.1
H     3.2   -2.2   -5.5
N     5.6   -3.5   -1.4
H    -0.8   -5.7   -3.6
H     1.0    6.4   -1.7
H    -5.1    3.8    2.4
I     1.9    2.4    6.1
H    -2.4   -5.0    4.0
H    -6.1   -3.0    0.5
H     5.1    3.0    3.6
C     1.9    6.8    0.1
N    -5.0    3.6    3.4
H    -5.3   -4.6    0.4
C    -1.5   -5.5    4.2
H    -1.4   -6.6    2.4
H    -5.3    3.2   -3.5
H     2.7    6.3   -1.8
C    -4.6    3.7   -4.0
H     2.3   -1.5   -6.6
I     6.0    3.9   -0.1
H     5.5   -4.6    0.4
N     1.9    6.9   -1.4
P    -7.1    1.6   -0.5
H     5.5    3.2   -3.5
H     6.5   -3.2    0.5
H    -4.4    4.7   -3.6
H     5.8    3.8    2.4
H    -1.0    1.3    7.2
H     1.1    7.3    0.5
H    -5.8    3.0    3.6
H    -6.2   -3.9   -1.7
P    -3.4    6.7   -0.5
N     5.8    3.6    3.4
I    -5.0   -3.7    4.5
N    -1.4   -6.8    3.4
H     6.4   -4.0   -1.8
H     2.9    7.2    0.5
C    -0.9   -6.6   -4.0
H    -2.7    1.4    7.3
I    -1.6   -2.2   -7.5
H    -1.4   -5.8    5.3
H    -4.2    5.5    4.0
H    -1.7    2.8    7.4
H     2.2   -7.7   -1.0
N    -1.8    1.8    7.7
H    -0.5   -7.3    3.6
H    -1.7   -7.2   -3.5
C    -5.1    4.9    4.2
I    -4.9    0.3    6.6
H     6.7    3.1    3.6
H     2.0    7.8   -1.7
H     4.8    5.4    4.0
H     1.4   -8.1    0.5
I     1.9    2.9   -7.5
H    -2.3   -5.8   -5.4
H     0.0   -7.2   -4.1
I     2.3    6.6    4.5
I     5.9   -3.7    4.5
P     3.9   -6.2    4.0
I     5.4   -3.4   -5.4
H     8.2    0.6   -1.3
C     6.3    3.7   -4.0
I    -5.5   -3.4   -5.4
H    -0.7   -5.9   -6.0
N    -5.1    4.0   -5.4
H    -5.2    3.1   -5.9
N    -1.4   -6.4   -5.4
H    -2.2   -7.4    3.6
P     7.5   -1.0    4.1
H     4.9    4.5   -5.4
I    -1.4    5.3    6.6
H    -8.1   -0.6    3.1
I    -5.1    0.8   -7.0
H    -4.4    4.5   -6.0
C     5.8    4.9    4.2
H    -5.1    4.6    5.3
I     2.2   -5.1    6.6
C     2.2   -8.4   -0.2
H     5.6    3.1   -5.9
H     6.5    4.7   -3.6
H    -1.7    0.4   -8.6
H    -0.6    1.9   -8.6
I     1.6   -5.3   -6.9
I    -2.1    5.1   -6.9
N     5.8    4.0   -5.4
I     6.0    0.3    6.6
H     7.2    3.2   -4.1
H     8.6    2.2    0.5
I     1.7    6.9   -5.4
P     4.0   -6.3   -5.0
H     3.1   -8.4    0.3
H    -6.0    5.4    4.0
H    -7.4   -1.9    4.9
H     5.8    4.6    5.3
I    -4.6   -7.2   -3.0
H    -1.7    8.4    3.1
H    -2.4    2.0   -8.5
I     5.8    0.8   -7.0
H     9.1   -0.1    0.0
I    -5.3   -7.3    1.6
C    -1.6    1.5   -8.9
P     7.6   -1.1   -5.0
N     9.1    0.6   -0.8
H    -6.0    4.5   -5.4
P     0.1   -3.5    8.6
I    -9.2   -0.8   -0.8
H    -7.8    0.2   -5.1
I     2.4   -1.2    8.9
I     5.6   -7.3    1.6
I    -8.3    3.1   -3.0
I     1.7   -8.5    3.7
H    -8.6   -0.7   -3.8
P    -3.4   -8.8   -0.5
I     9.1   -2.2    1.5
H     6.6    5.5    4.0
C    -1.7    1.7    9.2
P     3.8    1.7    8.6
H    -1.6   -7.3   -5.9
N    -8.8   -1.1    3.6
I     2.5   -1.4   -9.2
I    -8.9    3.1    1.6
I    -5.3    7.4   -2.9
C     9.4    2.0   -0.2
H    -1.8    0.7    9.5
H    -7.7   -2.2   -5.5
H    -8.9   -2.0    3.1
I     5.5    7.4   -2.9
C    -8.3   -1.3    5.0
H    -0.8    2.1    9.5
H     0.9    5.9    7.8
H    -0.1    8.5    4.9
H    -8.1   -0.4    5.5
H    -5.1   -2.4    8.0
I    -1.9    9.6   -0.8
H    -0.5    8.2   -5.5
H     2.5    5.6    7.6
I     8.9    1.9    3.7
H     9.4    2.7   -1.0
C    -8.6   -0.4   -4.8
H     6.5    4.5   -6.0
H    -2.1    8.0   -5.4
H     1.0   -9.8   -1.3
I     5.4    8.2    1.5
N     1.9   -9.8   -0.8
I    -5.5    8.2    1.5
I    -8.8   -4.3    2.1
H     9.9    0.3   -1.4
I     6.3   -7.2   -3.0
H     4.5   -4.5    7.8
N    -1.6    9.3    3.6
P     7.5    6.7   -0.5
I     9.2   -2.9   -2.9
I    -8.5   -5.0   -2.5
H    -4.7   -4.7    7.6
H     5.7   -2.4    8.0
P    -7.0   -6.2    4.0
H    -2.6    2.3    9.6
H    -4.1   -3.3   -8.7
P     0.3   -3.7   -9.5
I    -2.0   -5.9    8.2
H    -1.8    8.5    5.5
H    -0.8    9.8    3.1
N     1.8    5.9    8.3
H    -9.7   -0.6    3.6
C    -1.1    9.0    5.0
I     2.4   -9.0   -4.5
N    -8.6   -1.7   -5.6
H     5.1   -3.1   -8.6
P     4.0    1.4   -9.5
N    -1.4    8.7   -5.6
H    -1.4    9.7   -3.8
H     2.7  -10.0   -1.4
H     1.9    5.0   -9.0
H    -8.2    6.3   -1.8
H    10.4    2.0    0.3
H     1.8    5.2    9.0
P    -6.9   -6.3   -5.0
H     1.9  -10.5    0.0
H     8.5   -5.0    4.0
N    -1.6    1.6  -10.4
H    -9.0    5.7    0.4
C    -5.2   -3.1    8.8
I     9.6    1.3   -4.5
H    -4.2   -3.1    9.3
I     1.5   10.4    2.1
I     5.2    4.5    8.2
I    -2.1  -10.3    2.1
H     1.9   -7.6    7.4
H    -2.4    9.8    3.6
I    -1.3  -10.4   -2.4
H    -9.0   -1.9    5.5
H    -8.0    7.2    0.5
H    -5.8   -3.1   -8.6
H    -9.6    0.1   -5.1
I     2.3   10.3   -2.4
N    -5.4   -4.5    8.3
N     5.4   -4.5    8.3
P     3.8    9.3    4.1
H     6.2   -4.7    7.6
H    -0.8    1.0  -10.8
I    -5.6    4.5    8.2
I    -1.8   -2.0   10.6
H    -8.6   -1.5   -6.6
C     5.7   -3.1    8.8
H    -6.3   -4.5    7.8
C    -5.0   -3.3   -9.3
H    -9.4   -2.3   -5.4
H     8.2    1.4    7.3
H     4.9   -2.8    9.5
H    -2.5    1.1  -10.8
C    -1.4    9.9   -4.8
H    -1.6    2.5  -10.7
I    -9.0    2.4    6.1
I     1.7    3.1   10.6
H    -1.4    8.9   -6.6
C    -8.9    6.8    0.1
P   -10.6   -3.6   -0.5
P    -7.1    1.7    8.6
P     3.9    9.2   -5.0
I     9.7    5.4   -2.5
H     1.4    7.3   -8.6
I     9.4    6.1    2.1
N    -9.0    6.9   -1.4
I    -4.7    8.4    6.0
I    -5.4   -8.0    6.1
H    -0.9   10.0    5.5
H    -7.7   -8.4    0.3
C     5.9   -3.3   -9.3
I     5.5   -8.0    6.1
H     2.1    8.0    8.0
N     1.9    5.7   -9.8
P    -3.5    6.9    8.6
H    -5.0   -2.6  -10.1
P     7.5   -8.8   -0.5
H   -11.4    2.0    0.3
H     6.8   -3.3   -8.7
H    -6.0   -2.8    9.5
H    -5.4   10.3    0.0
C     2.1    7.3    8.8
H     5.5   10.3    0.0
H     1.0   -9.0    7.3
H    -8.7   -7.7   -1.0
H     3.2    7.0   -8.7
I     9.7   -6.5   -0.1
N     1.9   -8.6    7.7
I     9.8   -1.9    6.0
H     2.1   -1.3   11.4
H     8.6   -5.8   -5.4
H    -0.6   10.5   -5.1
C     9.4   -5.5    4.2
H     5.4   -5.2    9.0
I    -1.8   -6.1   -9.9
P    11.2   -3.6   -0.5
H    -4.6   10.7   -1.4
H    -5.5   -5.2    9.0
I    -8.6    6.6    4.5
H     9.5   -6.6    2.4
H    -5.3   -5.4   -9.0
H     1.0    5.6  -10.3
C     2.2    7.0   -9.3
H    -2.3   10.4   -5.1
P    -6.9    1.4   -9.5
I    -5.4   -7.5   -7.5
H     6.7   -3.1    9.3
H    -9.9    6.4   -1.7
H     5.6   -5.4   -9.0
H     4.6   10.9   -1.3
H     2.7   -9.1    7.2
I    -1.4   -9.6   -7.0
P     0.2   11.9   -0.5
I     5.5   -7.5   -7.5
H   -11.9    0.3   -1.4
H     5.9   -2.6  -10.1
H     1.2   -8.3   -8.5
H     8.7   -7.4    3.6
H    -8.9    7.8   -1.7
N     9.1    1.8    7.7
I     5.4    4.3   -9.9
I    -8.7   -5.1    6.6
I     6.2    8.4    6.0
I    -1.3  -10.0    6.6
H     9.2    2.8    7.4
H     2.7    5.4  -10.4
H    10.3   -4.9    4.0
N    -5.3   -4.7   -9.8
I    -9.0    2.9   -7.5
I    -5.5    4.3   -9.9
P     0.3  -11.4    4.1
P    -3.4    6.6   -9.5
C    -8.7   -8.4   -0.2
H    -4.1  -10.2   -5.1
P   -10.6    4.2    4.0
I     9.3   -2.2   -7.5
H    10.1   -5.7   -3.6
N     9.5   -6.8    3.4
H     8.5    2.0   -8.5
H    -4.4  -10.9    3.1
H     9.2   -7.2   -3.5
H     1.3    7.5    9.5
H     3.0    7.2    9.3
N     5.6   -4.7   -9.8
H    -9.8    7.3    0.5
I    -5.3    8.2   -7.5
N    -5.4   11.0   -0.8
H     9.5   -5.8    5.3
I    -0.9   -2.2  -12.0
H     4.7   -4.7  -10.3
N     5.5   11.0   -0.8
I     1.4   -5.0   11.1
H     9.9    1.3    7.2
I     2.0    2.1  -12.0
I     8.8    5.1   -6.9
I    -5.2    1.0   11.1
P   -10.6    4.1   -5.0
P    -7.1    9.3    4.1
I     5.4  -11.1   -0.8
I    -8.5   -1.2    8.9
I     5.6    8.2   -7.5
H     3.0   -8.5   -8.6
H    -4.5   -5.0  -10.4
I    -4.8    0.1  -11.5
I    -5.5  -11.1   -0.8
H     6.2   10.7   -1.4
I    -8.4   -1.4   -9.2
H     5.0  -10.3   -5.1
H     4.9  -10.9    3.6
H    -9.5   -8.1    0.5
I     5.7    1.0   11.1
C   -12.4    2.0   -0.2
P     0.4  -11.5   -5.0
P    11.1    4.2    4.0
I    -2.2    5.3   11.1
I    -1.3    5.0  -11.4
H     1.1   -8.1    9.6
P    -6.9    9.2   -5.0
H    -8.3    5.6    7.6
C    10.0   -6.6   -4.0
N     9.5   -6.4   -5.4
H     9.2    0.4   -8.6
I    12.6   -0.8   -0.8
I    -9.1    6.9   -5.4
H   -12.7   -0.1    0.0
