         400
 sphere cut out from bulk 
H     0.5    0.0   -0.6
N    -0.3    0.6   -0.7
H    -1.2    0.2   -0.4
C    -0.1    1.9    0.1
H    -0.4    0.9   -1.7
H    -0.0    1.7    1.1
H     0.8    2.4   -0.3
H    -1.0    2.5   -0.1
H    -1.3   -2.6    0.4
I     2.7   -1.4   -0.3
H     1.1   -3.1    0.4
I    -3.5   -0.6    0.3
C    -1.0   -3.6    0.2
N     0.4   -3.8    0.8
H    -0.9   -3.7   -0.9
I     1.5    0.8    3.6
H     0.3   -3.8    1.8
I    -0.7    1.7   -4.0
H     2.0    2.6   -3.4
H    -1.6   -4.4    0.5
I     3.6    3.1    0.3
P     4.3    0.4    2.0
H     0.7   -4.8    0.5
I    -2.1   -2.8   -3.4
H    -0.8    4.2    2.9
H     0.7    3.0    4.4
H     4.0    3.0   -2.1
I    -2.2    5.0    0.5
I     0.1   -3.8    4.2
C     2.7    3.4   -3.7
H    -1.6    3.5    4.3
C    -0.9    4.2    4.0
H     4.3    2.1   -3.4
N     4.0    3.0   -3.1
P    -5.1   -2.4   -2.0
H     2.4    4.4   -3.4
N     0.4    3.9    4.6
P     5.2   -2.4   -2.0
P    -2.3   -0.6   -5.7
P     1.7   -1.5    5.8
P    -6.0    0.4    2.0
I    -4.4    2.6    3.8
H     1.1    4.6    4.3
H     2.8    3.3   -4.8
I     4.5   -2.0    4.2
H    -2.7   -4.8    3.6
I     5.1   -0.1   -4.2
I    -5.2   -0.1   -4.2
I    -4.5   -5.1   -0.2
H    -1.3   -5.4   -3.9
I     6.8   -0.6    0.3
I     3.5   -4.6   -3.7
H    -1.2    5.3    4.3
H    -0.3   -6.3   -2.7
H     0.3    4.0    5.7
H     4.8    3.7   -3.4
I     0.0    6.1   -3.5
I     1.4   -6.9   -0.3
H     1.2   -5.5   -4.4
H    -6.0    2.1   -3.4
H    -4.7   -5.2    2.3
H    -6.3    3.0   -2.1
I    -6.7    3.1    0.3
C    -0.7   -6.3   -3.7
P    -1.4    4.4   -5.8
I    -5.8   -2.0    4.2
H    -5.1   -4.2    3.6
I     5.9    2.6    3.8
H    -5.5    3.7   -3.4
P    -5.0    5.3    2.0
C    -3.4   -5.5    3.9
H     5.3   -4.2    3.6
N    -6.3    3.0   -3.1
I     0.2   -1.5   -7.5
I    -0.8   -0.5    7.6
H     3.8    0.6   -6.7
I     5.8   -5.1   -0.2
P     5.3    5.3    2.0
N    -4.7   -5.1    3.3
P    -2.4    7.2   -1.8
I    -7.6   -1.4   -0.3
N     0.5   -6.3   -4.7
I     2.8    6.3    3.7
I    -4.0    5.5   -4.2
H     5.6   -5.2    2.3
H    -3.2   -6.5    3.6
H    -4.6    2.6    6.2
H    -3.6   -5.4    5.0
H    -4.1   -2.5    6.7
H    -3.1    1.4    7.5
N     5.6   -5.1    3.3
H     1.8    0.2   -8.1
H    -1.2   -7.2   -4.0
I    -3.0    2.2   -7.5
H     4.8   -5.8    3.6
H     0.2   -6.2   -5.6
I     1.5    4.0   -7.3
H    -2.6    3.1    7.5
H     1.1   -7.2   -4.6
H     4.0   -4.6   -6.1
H     2.2    1.8   -8.1
H     2.6   -3.2   -7.6
C     3.9    0.6   -7.8
H     2.4    7.3   -4.0
P     4.3   -7.4   -1.8
I     3.3    0.3    8.1
H    -5.5   -5.8    3.6
H     5.7    2.6    6.2
N     2.6    0.9   -8.4
C    -3.4    2.4    7.8
H    -2.3   -2.2    8.2
P     0.7   -6.4    6.0
H     0.5    8.1    3.6
I    -6.8   -4.6   -3.7
I    -3.5    7.1    4.2
N    -4.7    2.7    7.2
I     0.1    4.0    8.1
I     2.4   -4.2    7.6
H     4.2   -0.4   -8.1
H     9.1    0.2   -0.4
C    -7.6    3.4   -3.7
I     3.2   -7.4    4.2
I    -0.9   -8.3    3.7
I     5.0    7.6   -0.3
I    -3.8   -2.3   -8.0
H     4.9    2.0    7.5
C    -4.3   -2.4    7.7
I    -5.3    7.6   -0.3
H     2.1   -4.9   -7.6
I     8.2   -2.8   -3.4
H     3.4    8.2   -2.7
I     6.3    5.5   -4.2
H    -4.6   -1.4    8.0
H     9.0   -2.6    0.4
H    -8.3    2.6   -3.4
H    -6.5    0.6   -6.7
C     2.9   -4.2   -7.9
N     4.1   -4.6   -7.1
H     4.6    1.3   -8.1
H     6.2   -2.5    6.7
H    -5.4    2.0    7.5
N    -3.1   -2.8    8.5
H    -2.8   -3.8    8.2
H    -7.5    3.3   -4.8
I     8.1    5.0    0.5
N     5.6    2.7    7.2
I    -0.8    9.5   -0.2
C     3.0    8.2   -3.7
I    -8.8    0.8    3.6
P     1.6   -9.3    2.0
H     9.3    2.5   -0.1
C     6.9   -5.5    3.9
H    -7.9    4.4   -3.4
H    -1.8    8.8    3.6
H     4.9   -4.0   -7.3
H     7.6   -4.8    3.6
P    -6.0   -7.4   -1.8
H    -5.0    3.6    7.5
H    -1.0    9.4    2.3
H     8.7   -4.4    0.5
H    -9.2   -3.1    0.4
H     2.6    0.8   -9.4
I    -3.6   -8.4   -3.5
H    -9.8    0.0   -0.6
P     8.0   -0.6   -5.7
H     5.3    3.6    7.5
H    -3.5    2.4    8.9
H    -9.6    2.4   -0.3
I    -2.2   -6.0    7.5
H    -6.4   -4.6   -6.1
C     0.2    9.1    3.9
H     4.7    7.4   -4.6
H     5.7   -1.4    8.0
H    -5.4   -4.0   -7.3
I    -0.7   -6.0   -7.9
P     0.8    1.2    9.9
H     6.7   -5.4    5.0
H     5.1   -3.1    8.0
H    -5.2   -3.1    8.0
C     9.3   -3.6    0.2
H    -5.7    1.3   -8.1
N    10.0    0.6   -0.7
H     9.9    0.9   -1.7
C     6.0   -2.4    7.7
N    -1.1    9.4    3.3
C    -6.4    0.6   -7.8
H    -6.1   -0.4   -8.1
H     9.4   -3.7   -0.9
H     2.4    9.1   -3.9
H     4.4   -5.6   -7.3
H     7.1   -6.5    3.6
H     8.7    3.5    4.3
I     2.6   -9.1   -4.2
C    10.2    1.9    0.1
H    -5.6    7.4   -4.6
H     2.0   10.1    0.5
P    -1.4   -3.3   -9.7
H     3.1   -4.3   -8.9
N     4.2    8.3   -4.7
H     0.1    9.1    5.0
H    -3.3   -2.8    9.5
H    10.3    1.7    1.1
I    -7.5    6.3    3.7
H     1.0    9.8    3.6
H    -2.7    2.2   -9.9
N    -6.2   -4.6   -7.1
I     9.6    1.7   -4.0
I     6.5   -2.3   -8.0
P    -8.6   -1.5    5.8
H     7.2    1.4    7.5
H   -10.3    1.7    1.1
I     4.4   -9.6    0.5
I    -1.6    6.7   -8.0
C   -10.4    1.9    0.1
N   -10.6    0.6   -0.7
N    -9.9   -3.8    0.8
H    -9.6   -4.8    0.5
I     7.4    2.2   -7.5
I    -7.0    0.3    8.1
C     6.9    2.4    7.8
I     6.8    7.1    4.2
H     4.4    9.8    0.5
H     9.5    4.2    2.9
H    10.8    0.0   -0.6
H    -1.2  -10.2   -3.4
H     3.9    8.4   -5.6
H   -10.0   -3.8    1.8
P     7.9    7.2   -1.8
H   -10.7    0.9   -1.7
H    -9.6    3.0    4.4
H    -5.9   -5.6   -7.3
I    -3.1    9.9   -3.7
P     4.4    8.1    6.0
I     4.6    5.8    8.2
C     9.4    4.2    4.0
H    -1.4   10.4    3.6
H    -6.9    8.2   -2.7
H    -9.2    4.6    4.3
H     7.7    3.1    7.5
I    -7.1   -7.4    4.2
H    -2.5   -9.9    4.3
H     4.8    9.1   -4.4
H     2.8   10.8   -0.9
H     9.0   -5.4   -3.9
H    -7.7   -3.2   -7.6
C     2.7   10.9    0.2
I    -5.9   -9.6    0.5
N    -6.1    8.3   -4.7
I     6.7   -8.4   -3.5
I    -8.9   -6.9   -0.3
H    11.1    2.4   -0.3
H     3.3   -4.4    9.9
H    -4.9   -9.3    4.3
N    10.7   -3.8    0.8
H     9.1    5.3    4.3
H    10.6   -3.8    1.8
N    -7.8    0.9   -8.4
H     1.1  -10.9   -3.4
H    -5.9    9.8    0.5
N    -2.7    2.1  -10.9
N     7.2   -2.8    8.5
H    -5.5    9.1   -4.4
H    -7.9    7.3   -4.0
I     1.5    8.5    7.5
H     6.8    2.4    8.9
N     4.0   10.7    0.8
I    -0.0  -11.5    0.3
P     8.9    4.4   -5.8
P     1.3    6.3   -9.5
H    -2.3    1.2  -11.2
H   -11.5    0.2   -0.4
H    -9.1   -5.5   -4.4
H    -8.1    1.8   -8.1
I    -5.7    5.8    8.2
C    -7.4   -4.2   -7.9
N    -9.9    3.9    4.6
H   -11.3    2.5   -0.1
H     5.4   -9.3    4.3
C    -7.3    8.2   -3.7
H     4.0   10.8    1.8
H    -4.4  -10.4    2.9
H     8.0   -2.2    8.2
P     1.7    6.2    9.8
H    -8.5    0.2   -8.1
I    -2.2    1.7   11.4
I   -10.2   -3.8    4.2
H     0.3  -11.5   -2.1
P    -5.9    8.1    6.0
H    -1.9    2.8  -11.2
H     7.5   -3.8    8.2
I    -7.9   -4.2    7.6
H    11.4   -3.1    0.4
H    -2.2    9.0   -7.3
I    10.4   -3.8    4.2
H   -11.2   -3.7   -0.9
C    -1.0  -11.2   -3.7
C   -11.3   -3.6    0.2
I   -11.0    1.7   -4.0
H   -11.6   -2.6    0.4
N     0.4  -11.5   -3.1
C    -4.6  -10.3    4.0
H    -2.7   10.0   -6.1
H    -6.5    8.4   -5.6
I     1.4   -3.7  -11.3
H    11.0   -4.8    0.5
I     3.0    8.6   -7.9
N    -3.3  -10.6    4.6
I     0.9   -8.8    8.2
I    -1.6   -1.0  -12.0
C     9.6   -6.3   -3.7
H   -10.0    4.0    5.7
H     2.3   11.9    0.4
H     7.0   -2.8    9.5
H    10.0   -6.3   -2.7
I    -8.8    4.0   -7.3
I     3.7   10.8    4.2
I     2.8    0.8  -11.8
H    -7.7    0.8   -9.4
H   -11.1    4.2    2.9
I     9.5   -0.5    7.6
I     0.9   -1.0   12.1
H    -8.2   -4.9   -7.6
H    11.0    3.0    4.4
H    -7.2   -4.3   -8.9
H     9.1   -7.2   -4.0
H     5.9  -10.4    2.9
H    -0.9  -11.2   -4.8
I     2.3    3.5   11.6
I     5.1   -7.8   -8.0
H    -4.7    1.7  -11.2
N    10.7    3.9    4.6
I    11.8    0.8    3.6
I     1.5   11.8   -3.4
N     3.6   -4.5   10.9
H     1.8   -3.6   11.7
I    -5.2   -7.8   -8.0
P    -1.4   12.1   -2.0
H     4.7   11.4    0.4
N    -6.3   10.7    0.8
N    -2.5    9.9   -7.1
C     5.7  -10.3    4.0
I   -10.3    6.1   -3.5
C    -4.0    2.5  -11.6
H    -3.3  -10.6    5.7
H    -2.9  -12.1   -0.3
H    -1.7  -11.9   -3.4
N    -9.8   -6.3   -4.7
H     4.2   -3.7   11.2
I    10.3    6.1   -3.5
H    -4.3    3.5  -11.3
H    -9.2   -7.2   -4.6
I    -7.7   -9.1   -4.2
C   -11.2    4.2    4.0
H    -6.3   10.8    1.8
I     8.1   -6.0    7.5
H     7.6    2.2   -9.9
H   -10.6   -6.3   -2.7
I    -0.3    4.5  -11.8
I   -10.1   -1.5   -7.5
H     5.6    1.7  -11.2
H    10.6    4.0    5.7
H    -7.9    9.1   -3.9
H    -4.4    5.1   10.8
I     2.2  -11.9    3.8
H     8.5    8.8    3.6
H    -2.9  -11.6    4.4
H    -5.6   11.4    0.4
H   -11.9   -4.4    0.5
P    -5.1  -10.2   -5.8
I    -3.7   -2.8   11.9
I     7.2    9.9   -3.7
P    -2.4   -8.2   -9.5
P     5.2  -10.2   -5.8
P    -8.7   -9.3    2.0
H     5.0  -11.0    4.3
C     2.4   -4.5   11.8
H     4.1   -5.4   11.0
H    -4.7  -12.0   -0.1
H    -7.0   -4.4    9.9
H     1.9   -5.4   11.6
H     0.7  -12.5   -3.4
H    -1.7   10.6   -7.3
I    10.5   -1.5   -7.5
I    -3.0   -5.6  -11.3
H    -5.3  -11.0    4.3
H    12.3    2.6   -3.4
P    -2.0   -8.4    9.8
I    13.0   -1.4   -0.3
P    -9.6   -6.4    6.0
I    -2.2  -10.6   -7.3
H    -2.9    3.9   12.1
I     3.7    5.3  -11.3
H    11.4    4.6    4.3
I     9.4   -8.3    3.7
H    -4.6    9.6   -7.6
H    -8.3   10.1    0.5
H   -10.1   -6.2   -5.6
H   -11.9    3.5    4.3
C   -11.0   -6.3   -3.7
H    -3.0    7.4  -10.5
