         400
 sphere cut out from bulk 
P    -1.7   -0.0   -0.0
I     0.8   -2.0    0.2
I     0.1    2.6    0.1
H     2.7   -0.2   -1.8
H     1.5   -0.0    2.9
I    -1.5    0.0   -3.2
I    -1.9   -0.1    3.2
H     1.2    0.5   -3.5
H    -0.9   -3.3    2.1
C     3.0   -0.3   -2.8
C     2.4   -0.4    3.4
H     3.6    0.8    2.0
H     2.7   -1.3    3.0
N     2.2    0.6   -3.6
H    -1.4    3.3   -2.3
H     2.7   -1.3   -3.1
H     2.4    1.6   -3.3
I    -3.6   -2.6   -0.0
H    -0.8    4.0    2.0
N     3.5    0.6    3.1
I    -4.3    1.8   -0.1
I     4.6    1.8   -0.1
H     3.2    1.6    3.4
H     4.0   -0.1   -2.9
N    -0.9   -4.2    2.7
H     2.3   -0.4    4.5
H    -0.6   -3.7   -3.5
P     2.8    4.4   -0.0
H     2.4    0.5   -4.6
P     2.8   -4.5   -0.0
C    -2.1    4.0   -2.8
H    -0.1   -4.2    3.3
H    -2.5   -4.2   -2.2
H    -0.8   -4.9    2.0
H    -2.9    3.4   -3.3
N    -0.9    4.8    2.7
H     4.4    0.4    3.4
H    -4.5    0.4    3.4
H    -4.9   -0.1   -2.9
H    -5.3    0.8    2.0
H    -0.1    4.7    3.3
H    -2.5    4.7   -2.2
H    -2.2    3.7    4.0
H    -2.2   -3.5    4.2
I     5.3   -2.6   -0.0
N    -1.3   -4.2   -3.9
H    -3.0   -4.3    2.8
C    -2.2   -4.3    3.5
I     2.6    4.3   -3.2
I     2.7    4.2    3.3
C    -2.1   -5.0   -2.8
H    -2.0   -3.6   -4.5
H    -0.9    5.7    2.1
H    -0.9    4.0   -4.6
I     2.6   -4.6   -3.2
C    -2.2    4.6    3.5
H    -1.4   -5.6   -2.3
H    -3.0    4.7    2.8
N    -1.3    4.7   -3.9
N    -5.5    0.6    3.1
I     2.7   -4.7    3.3
H    -0.6    5.3   -3.5
I     0.1   -6.4    0.1
H    -6.3   -0.2   -1.8
C    -6.0   -0.3   -2.8
P    -1.8    0.0   -6.4
P    -1.7   -0.1    6.4
I     0.9   -1.8   -6.4
H    -0.9   -4.9   -4.6
H    -5.7    1.6    3.4
I     0.9    1.7    6.6
H    -2.2   -5.3    4.0
I     0.1    2.7   -6.5
H    -6.2   -1.3    3.0
I     0.0   -2.8    6.4
I     0.8    7.0    0.2
H    -6.2   -1.3   -3.1
H    -2.9   -5.5   -3.3
P     7.2   -0.0   -0.0
H    -2.0    5.3   -4.5
H    -2.2    5.5    4.2
I    -3.6    6.3   -0.0
C    -6.5   -0.4    3.4
H    -6.6    1.6   -3.3
P    -6.2    4.4   -0.0
P    -6.2   -4.5   -0.0
I    -3.5   -2.7   -6.3
H     6.0    3.4   -3.3
N    -6.7    0.6   -3.6
I     7.1   -0.1    3.2
H     5.9   -4.3    2.8
I    -3.6    2.5    6.5
H     6.4   -4.2   -2.2
H    -6.6   -0.4    4.5
H    -6.5    0.5   -4.6
I    -4.4    1.8   -6.4
I    -4.4   -1.9    6.4
H    -7.4   -0.0    2.9
H     5.9    4.7    2.8
I     4.5    1.8   -6.4
I     4.5   -1.9    6.4
I     7.5    0.0   -3.2
I    -6.2    4.2    3.3
H     6.4    4.7   -2.2
I     5.3    6.3   -0.0
P     2.7    4.4    6.5
P     2.8   -4.4   -6.4
I    -4.3   -7.1   -0.1
I    -8.1   -2.0    0.2
I    -6.4    4.3   -3.2
P     2.8    4.5   -6.4
P     2.7   -4.6    6.5
H     2.4   -7.3   -3.3
C     6.8    4.0   -2.8
I    -6.2   -4.7    3.3
I     4.6   -7.1   -0.1
I    -6.4   -4.6   -3.2
H    -7.8    0.5   -3.5
H     7.5    3.3   -2.3
H     6.7   -3.5    4.2
H     2.7    7.6    3.0
H     2.7    7.6   -3.1
H     6.8    3.7    4.0
C     6.7   -4.3    3.5
I     5.4   -2.7   -6.3
H     3.2   -7.4    3.4
H     2.5    0.7    8.4
I     5.4    2.5    6.5
H     6.0   -5.5   -3.3
C     6.7    4.6    3.5
C     6.8   -5.0   -2.8
I     0.0    6.1    6.4
H     8.0   -3.3    2.1
H     3.5   -0.6    8.3
I     0.1   -6.3   -6.5
H     6.9   -3.6   -4.5
H     2.2    1.1   -8.7
P    -1.7    8.9   -0.0
P    -1.7   -9.0   -0.0
I    -8.8    2.6    0.1
H     3.6   -8.2    2.0
H     2.3   -0.7   -8.9
H     8.1    4.0    2.0
H     1.1   -8.5   -3.5
H     2.7    8.7   -1.8
N     2.2   -8.3   -3.6
N     8.0   -4.2    2.7
H    -2.1   -4.1    8.2
I     9.1    2.6    0.1
H     6.7   -5.3    4.0
N     3.1    0.1    8.9
N     3.5   -8.3    3.1
H     1.5    8.9    2.9
N     7.6   -4.2   -3.9
I    -3.5    6.3   -6.3
C     3.0    8.6   -2.8
C     2.4    8.6    3.4
H     1.5   -9.0    2.9
I    -1.5   -8.9   -3.2
H     6.7    5.5    4.2
P     7.2    0.0   -6.4
H    -2.1    4.2   -8.4
I    -1.9    8.9    3.2
I     0.9    7.1   -6.4
I    -1.5    9.0   -3.2
H     7.5   -5.6   -2.3
P     7.2   -0.1    6.4
C     2.3    0.3   -9.4
H     8.1   -4.9    2.0
N     8.0    4.8    2.7
H     2.7   -9.1   -1.8
N     7.6    4.7   -3.9
I    -1.7   -0.1   -9.6
H     1.6   -1.2    9.6
H     8.3   -3.7   -3.5
I    -1.9   -9.0    3.2
I    -3.6   -6.4    6.5
H    -2.0    4.9    8.2
H     6.9    5.3   -4.5
I    -1.9   -0.3    9.6
I     0.9   -7.3    6.6
H    -2.1   -4.8   -8.4
H     2.3    8.5    4.5
H     2.4   -8.4   -4.6
H    -5.4   -0.6    8.3
H    -1.2   -2.8   -9.4
H    -5.7   -7.4    3.4
P    -6.1   -4.4   -6.4
I     9.7   -2.0    0.2
H    -5.3   -8.2    2.0
P    -6.1    4.5   -6.4
P    -6.2    4.4    6.5
H     8.0    5.7    2.1
H     8.0    4.0   -4.6
P    -6.2   -4.6    6.5
H     1.2    9.4   -3.5
H     3.9    0.7    9.3
C     3.0   -9.3   -2.8
H     4.0    8.8   -2.9
H     1.4    0.3  -10.1
C     2.4   -9.3    3.4
H    -2.1   -3.0    9.5
H     4.4   -8.6    3.4
H    -0.0   -4.0   -9.4
H    -6.2    7.6    3.0
H    -4.5   -8.6    3.4
H    -6.2    7.6   -3.1
H     8.8   -4.2    3.3
N    -2.3   -4.0    9.2
C     2.3   -0.6   10.0
H     4.0   -9.1   -2.9
H    -1.7    3.0    9.7
H    -6.6   -7.3   -3.3
N    -5.5   -8.3    3.1
I     5.4    6.3   -6.3
I    -8.0   -1.8   -6.4
H     8.0   -4.9   -4.6
I    -4.4    7.0    6.4
H    -9.0   -4.2    3.3
I    -8.0    1.7    6.6
N     2.2    9.6   -3.6
H     8.3    5.3   -3.5
I     4.5    7.0    6.4
H    -4.9    8.8   -2.9
N    -1.0   -3.7   -9.8
H     3.6    9.7    2.0
H     8.8    4.7    3.3
H     4.4    0.4   -9.6
I     5.4   -6.4    6.5
I    -4.4   -7.1   -6.4
H    -1.7    3.3   -9.9
C    -2.0    4.2   -9.5
H    -9.8   -3.3    2.1
H    -6.5    0.7    8.4
H    -4.5    0.4   -9.6
P   -10.6   -0.0   -0.0
I     4.5   -7.1   -6.4
H    -5.1    0.7    9.3
N     3.5    9.6    3.1
H     2.3   -9.4    4.5
H    -0.0    5.0   -9.4
I    -8.1    7.0    0.2
N    -5.8    0.1    8.9
H    10.1    0.5   -3.5
H    -9.0    4.7    3.3
H    -4.9   -9.1   -2.9
H    -9.8    4.0    2.0
H    -3.3   -4.1    9.3
N    -2.3    5.0    9.2
H    -9.5   -3.7   -3.5
C    -2.0   -4.7   -9.5
N     3.5    0.4  -10.2
H    10.4   -0.0    2.9
H    -0.5    4.2    9.9
H     2.4    9.5   -4.6
C    -6.0    8.6   -2.8
H     4.4    9.3    3.4
I   -10.4    0.0   -3.2
I    -8.8   -6.4    0.1
H     1.9    0.1   10.7
H    -6.2    8.7   -1.8
H    -4.5    9.3    3.4
I     2.6   -4.4   -9.6
C    -1.5    4.0   10.1
I     2.6    4.5   -9.6
I     0.8  -10.9    0.2
H    -0.5   -4.7    9.9
H    -3.3    4.8    9.3
H    -6.7    1.1   -8.7
I     3.0    4.4    9.7
H     2.7  -10.3    3.0
N    -9.9   -4.2    2.7
H     3.0   -1.3   10.6
H    -6.6   -0.7   -8.9
I     9.0   -6.4    0.1
H   -10.3    3.3   -2.3
P    -1.7    8.9    6.4
I     3.0   -4.6    9.7
H     2.7  -10.3   -3.1
H    -9.8   -4.9    2.0
P    -1.8   -8.9   -6.4
P    -1.7    9.0   -6.4
N    -1.0    5.2   -9.8
P    -1.7   -9.0    6.4
H    -6.3   -9.1   -1.8
H    -3.0   -4.4   -9.9
I   -10.8   -0.1    3.2
H    -5.3    9.7    2.0
I    -8.8    2.7   -6.5
N    -9.9    4.8    2.7
C    -6.5    8.6    3.4
N    -6.7   -8.3   -3.6
C    -1.5   -4.9   10.1
H    -3.0    4.6   -9.9
I    -8.9   -2.8    6.4
H     2.4   10.6   -3.3
H    -1.2    6.2   -9.4
H     3.6    1.3  -10.7
C    -6.0   -9.3   -2.8
I     9.0   -2.8    6.4
I     9.0    2.7   -6.5
H    -2.1    6.0    9.5
H    -9.5    5.3   -3.5
N    -5.4    9.6    3.1
H    -0.9   -3.6  -10.8
H     6.9   -4.1    8.2
P     7.2    8.9   -0.0
H     3.6   -0.3  -10.9
C    -6.6    0.3   -9.4
I     0.1   11.5    0.1
N    -5.4    0.4  -10.2
P     7.2   -9.0   -0.0
H    -1.7   -5.9    9.7
H     3.2   10.5    3.4
H    -1.7   -5.7   -9.9
H    -9.8    5.7    2.1
H    -9.8    4.0   -4.6
H    -6.5   -8.4   -4.6
H     6.8    4.2   -8.4
I    -4.3   10.8   -0.1
H     5.6   -4.1    9.3
H    -6.6    8.5    4.5
N    11.1    0.6   -3.6
I     4.6   10.8   -0.1
H    11.6   -0.2   -1.8
N   -10.3   -4.2   -3.9
I     7.1    8.9    3.2
H     6.9    4.9    8.2
H     6.8   -4.8   -8.4
C    11.3   -0.4    3.4
C    -6.5   -9.3    3.4
I     9.8   -1.8   -6.4
H    11.3    1.6   -3.3
H     2.2   -7.8   -8.7
H     5.6    4.8    9.3
I     7.1   -9.0    3.2
H    -9.8   -4.9   -4.6
I     7.0   -0.3    9.6
N   -10.3    4.7   -3.9
H   -10.3   -5.6   -2.3
I     9.9    1.7    6.6
H    -7.4    8.9    2.9
I     7.2   -0.1   -9.6
I     9.8    7.0    0.2
H    -1.8    4.2   11.1
C    -6.6   -0.6   10.0
H     2.4   -8.2    8.4
N     6.6   -4.0    9.2
H    -7.5   -9.0    2.9
H    -7.8   -8.5   -3.5
I     7.5   -8.9   -3.2
C   -11.0    4.0   -2.8
H    -5.4    1.3  -10.7
H     6.8   -3.0    9.5
H    11.6   -1.3    3.0
H    -5.3   -0.3  -10.9
I     7.5    9.0   -3.2
H    11.3   -0.4    4.5
I    -3.6  -11.6   -0.0
H    -0.9    5.4  -10.8
H    -7.4   -1.2    9.6
H    11.6   -1.3   -3.1
H    -5.9   -1.3   10.6
I    -5.9    4.4    9.7
C    11.9   -0.3   -2.8
I    -5.9   -4.6    9.7
H    -1.8   -4.8   11.1
N    -6.7    9.6   -3.6
H    11.3    0.5   -4.6
H     3.5    8.4    8.3
H    -6.6   -9.4    4.5
I    -6.3   -4.4   -9.6
H   -10.9   -3.6   -4.5
H     2.3    8.3   -8.9
H   -11.1    3.7    4.0
H    -6.2  -10.3    3.0
I    -6.3    4.5   -9.6
H     5.9   -4.4   -9.9
H   -11.4   -4.2   -2.2
H    -6.5    9.5   -4.6
C   -11.0   -5.0   -2.8
H    -6.2  -10.3   -3.1
H     1.6    7.7    9.6
N     6.6    5.0    9.2
P   -10.6   -0.1    6.4
H   -11.2   -3.5    4.2
C   -11.1   -4.3    3.5
H     6.0    4.6   -9.9
P   -10.7    0.0   -6.4
H    -5.7   10.5    3.4
H    -0.9  -12.2    2.1
H     7.2    3.0    9.7
C     6.9    4.2   -9.5
I    -8.0    7.1   -6.4
P    11.7    4.4   -0.0
H     7.7   -2.8   -9.4
P    11.7   -4.5   -0.0
I     1.0   10.6    6.6
C   -11.1    4.6    3.5
H    -7.5    0.3  -10.1
