         400
 sphere cut out from bulk 
H     0.6   -0.9   -0.1
H     1.4    0.5   -0.1
N     1.5   -0.5    0.2
H     0.9   -0.2    2.2
H     2.3   -0.9   -0.3
C     1.7   -0.7    1.7
I    -1.7   -1.6   -1.1
H     1.8   -1.7    1.9
H     2.7   -0.2    1.9
I     1.3    2.8   -1.2
I    -2.5    2.3    1.1
H    -1.9    0.5   -3.1
H    -1.0    2.7   -2.5
P    -3.8   -0.7    1.1
I    -1.6   -1.6    3.4
I     1.7   -0.7   -4.0
C    -1.9    1.3   -3.8
N    -1.9    2.6   -3.1
H    -1.3   -4.0    1.6
I     1.4    2.8    3.4
H    -2.7    2.7   -2.5
P    -0.1    4.5    1.1
H    -0.9    1.3   -4.4
I     2.0   -4.1   -1.1
P    -0.2   -3.3   -3.4
H    -1.2   -4.7   -0.0
H    -2.0    0.7    4.5
I     4.9    0.2   -1.0
H    -2.2    2.2    3.9
C    -1.1   -4.9    1.0
P     3.6    1.9   -3.4
H    -2.7    1.3   -4.5
H    -1.9    3.4   -3.7
H    -0.2   -5.4    1.3
N    -2.4    1.6    4.8
I     1.9   -4.3    3.4
I    -6.0    0.2   -1.0
H    -4.3   -3.0   -3.2
H    -3.4    1.5    4.9
H     5.2   -2.1   -2.8
H    -0.7    2.2    5.8
H     5.1    3.6    0.9
I     5.2    0.2    3.6
I    -5.0   -3.7    1.2
H    -3.2   -5.4    1.2
H    -3.9    4.9    1.3
N    -2.2   -5.9    1.4
P    -0.1   -3.2    5.6
H     4.1    4.9    1.2
I    -1.7    6.2   -1.1
I    -2.2   -2.5   -5.7
I     1.8   -0.8    6.3
C    -1.8    2.1    6.0
H    -5.7   -2.1   -2.8
I    -5.7    0.2    3.6
H     3.9   -3.7   -4.2
H     1.5   -1.0   -6.6
I    -1.8   -6.0   -2.7
P     3.4    1.9    5.6
N     5.0    4.5    1.4
C    -5.3   -3.1   -3.0
H    -2.2   -6.1    2.4
H    -5.8    3.6    0.9
P     3.5   -5.8    1.1
H     5.4   -3.8   -2.2
I     2.0    3.5   -5.6
H     5.1    4.3    2.4
I     5.9   -3.7    1.2
C     5.6   -3.1   -3.0
H    -5.6   -3.8   -2.2
I     2.2    6.6    1.2
H     1.7    6.6   -2.2
H    -2.2   -6.8    0.9
I    -1.7    6.0    3.4
P     7.1   -0.7    1.1
H    -2.0    1.5    6.8
H    -2.2    3.1    6.2
C    -4.8    5.4    1.0
H     4.5   -3.8    4.5
H    -4.9    5.6   -0.0
N     5.0   -3.6   -4.3
I     5.5    4.4   -2.7
I    -5.5    4.4   -2.7
H     1.6    5.8   -4.5
N    -5.9    4.5    1.4
H    -4.6   -3.8    4.6
I     1.7   -5.0   -5.4
H    -5.9    4.3    2.4
H     5.4   -1.7    5.3
I    -5.3    0.8   -5.6
N     1.4   -0.8   -7.6
H     0.5   -0.3   -7.8
H     5.1   -3.0   -5.1
H     0.3    6.6   -4.2
H     2.4    1.1   -7.4
H    -5.6   -1.7    5.3
I    -2.0    5.3   -5.4
I    -2.0   -5.8    5.0
I     5.6    0.8   -5.6
H     6.7   -3.0   -3.2
H     0.9    6.5    4.5
N     1.3    6.7   -4.3
H     1.8   -6.9   -3.7
I    -1.3    1.4   -7.8
C     1.9    7.3   -3.0
H     0.9   -7.6   -2.5
N    -6.0   -3.6   -4.3
H    -4.9    6.3    1.6
C     6.1    5.4    1.0
I     1.2   -8.1    1.1
H     6.0    5.6   -0.0
H    -5.8   -3.0   -5.1
H     4.5   -2.4    6.5
P    -7.4    1.9   -3.4
H     5.3   -4.6   -4.5
C     2.5    0.2   -8.0
N     5.4   -2.5    5.9
C     5.4   -3.8    5.2
H     1.7    5.7    5.9
H     2.6    6.5    4.6
H    -4.7   -2.4    6.6
H     2.6   -7.6   -2.5
H     1.5   -1.7   -8.1
I    -2.4   -2.3    7.8
C    -5.5   -3.8    5.2
H    -8.3   -0.2    1.9
N     1.8   -7.7   -3.1
I     5.2    4.5    5.0
H    -6.8    4.9    1.2
H     3.0    7.3   -3.2
H     3.5   -0.3   -7.8
H    -5.6   -4.6   -4.5
N    -5.6   -2.5    5.9
C     1.7    6.6    5.2
P    -3.8    7.0   -3.4
H     6.3   -3.8    4.6
H     7.1    4.9    1.3
H    -6.4   -3.8    4.5
H    -8.7   -0.9   -0.3
P    -3.7   -0.7   -7.9
I     8.4    2.3    1.1
I    -5.7    4.5    5.0
H     1.5    8.2   -2.8
I     1.9    3.6    7.9
H     6.0    6.3    1.6
H    -7.0   -3.7   -4.2
H     8.2    2.7   -2.5
H    -0.9   -5.4   -7.1
H    -1.9    8.6    1.9
H     1.5    7.3   -5.1
P    -0.1    4.4   -7.9
H     7.5    1.5    4.9
I     4.9   -7.5   -1.2
H    -2.7   -5.4   -6.8
H     1.5   -8.1    3.9
H     5.4   -4.6    5.9
H     2.3    0.5    9.0
H     6.2   -2.4    6.6
H    -5.6   -4.6    5.9
H     2.5    0.4   -9.0
C    -9.2   -0.7    1.7
I     9.2   -1.6   -1.1
H     8.2    1.3   -4.5
I     1.2   -4.9    8.0
N    -9.5   -0.5    0.2
H    -6.4   -2.4    6.5
P    -7.4   -5.8    1.1
H    -9.5    0.5   -0.1
H    -1.4    9.4   -0.3
H    -9.2   -1.7    1.9
H     7.8   -5.4    1.2
H     4.6    4.9   -6.8
H     9.0    0.5   -3.1
H     5.4    3.4   -7.1
P    -7.5    1.9    5.6
I    -5.4    1.1    7.9
H    -5.5    3.4   -7.1
C    -1.9   -5.9   -7.3
H     1.5   -7.2    6.2
I     5.1   -7.6    3.4
I    -6.0   -7.5   -1.2
I     5.6    1.1    7.9
I     4.8   -3.0   -7.9
H    -4.6    4.9   -7.1
P    -3.8    7.1    5.6
H     8.7    2.2    3.9
P    -3.7   -8.5   -3.4
N     9.0    2.6   -3.1
N     8.5    1.6    4.8
H    -3.1    9.4   -0.1
I    -8.9   -4.1   -1.1
C     9.1    1.3   -3.8
I    -2.4    5.4    8.0
C     1.8   -9.0   -3.8
H     8.9    0.7    4.5
N     1.7    7.9    5.9
I     9.3   -1.6    3.4
N     1.3   -8.7    4.8
C    -2.0    9.7    1.7
H     0.2   -8.8    4.9
N    -2.2    9.8    0.2
H     1.4   -1.5    9.9
H    -1.8   -7.0   -7.1
H     1.0   -9.0   -4.5
C     5.4    4.4   -7.3
I    -9.7    2.8   -1.2
I    -9.3   -0.7   -4.0
I    -5.9   -7.6    3.4
C    -5.5    4.4   -7.3
H     0.4   -0.2   10.2
I    -5.2   -6.8   -5.6
H   -10.0   -0.2    2.2
H     1.7    8.7    5.3
P     3.4    9.6    1.1
I    -5.4    8.7   -1.1
H    -2.2   -4.6    8.9
H     0.8    7.9    6.5
C     2.4    0.3   10.0
C     1.9   -8.2    6.0
H     9.0    3.4   -3.7
H    -1.0   10.2    1.9
I     5.5    8.7   -1.1
H   -10.3   -0.9   -0.1
I    -1.5    1.5   10.2
I    -6.1   -3.0   -7.9
H     2.7   -9.1   -4.4
H    -2.1   -4.7   -9.1
H     3.0   -8.1    5.8
H     1.8   -9.8   -3.1
I    -2.3  -10.2   -1.0
I    -9.6    2.8    3.4
P     3.5   -5.9   -7.9
I     5.7   -6.8   -5.6
N     1.3   -0.6   10.4
H    -6.4    4.9   -6.8
P     7.1    7.0   -3.4
H     9.9    2.7   -2.5
I    -9.0   -4.3    3.4
H     9.7   -4.0    1.6
N     8.7   -5.9    1.4
H     2.5    7.9    6.6
I    -2.0    9.6   -4.0
I     1.3   10.5   -1.0
H    -1.4   -6.0    8.7
I     8.7   -2.5   -5.7
P     7.2   -0.7   -7.9
H     6.4    4.9   -7.1
N    -2.1   -5.7   -8.8
H     4.2    4.3    8.9
H    -7.4   -0.3   -7.8
H    -2.8   10.2    2.2
H     1.6   -9.7    4.5
I    -2.3   -2.4  -10.3
H     9.7   -4.7   -0.0
H     3.4   -0.2   10.3
I    -5.3    8.8    3.4
P    -3.8   -8.4    5.6
P    -3.8   -0.6   10.1
I     1.2    7.4   -7.9
H     4.3    4.2   -9.1
I     2.0    3.5  -10.1
H     8.7   -6.1    2.4
H     2.3    1.2   10.6
I    -2.0  -10.1    3.6
H    -5.1    4.3    8.7
I     5.1    7.9   -5.7
I     5.6    8.8    3.4
H    10.0    1.3   -4.4
N    -2.2   -5.6    9.2
C     9.8   -4.9    1.0
I    -8.7    6.6    1.2
P    -0.2    4.5   10.1
H    -2.2   10.9   -0.1
H     5.1   -9.8   -0.1
P    -0.1  -11.1    1.1
I    -8.9    3.5   -5.6
H     8.8   -6.8    0.9
I    -9.2   -0.8    6.3
C     9.2    2.1    6.0
I    -1.6   -9.6   -5.6
H     8.8    3.1    6.2
I     9.3    6.2   -1.1
H    -3.1   -6.0    8.9
N     5.2    4.6   -8.8
H    -7.9    7.3   -3.2
I     1.6   10.6    3.6
I     9.1   -6.0   -2.7
H    -1.3   -6.2   -9.3
H     5.8    4.3    8.7
I     1.4   -5.1  -10.0
H     1.7   -8.9    6.8
H    -8.5    1.1   -7.4
I    -5.9    7.9   -5.7
H     8.9    1.5    6.8
H    -5.0    4.2   -9.3
H    -3.0   -6.2   -9.1
H    -5.8   -9.8   -0.1
H    -1.9    1.3  -11.2
I    -5.3    1.0  -10.1
N    -5.8    4.6   -8.8
I     9.2    6.0    3.4
I     4.7   -2.8   10.1
H    -8.3    6.5    4.6
N     5.1    4.7    9.2
P     7.1    7.1    5.6
H    -9.4   -1.0   -6.6
H    -8.3   -7.6   -2.5
H    -9.2    6.6   -2.2
H     1.4   -0.8   11.4
H    11.5   -0.9   -0.1
I    -2.3    5.3  -10.0
C    -8.4    0.2   -8.0
I    -1.9    9.6    6.3
I     5.7    1.0  -10.1
H    -4.6  -10.5    1.9
P     7.2   -8.5   -3.4
H    -2.2    9.4   -6.6
I    -5.4   -6.8    7.9
H     4.6  -10.5    2.2
I     8.9    5.3   -5.4
P    10.8    4.5    1.1
I     8.5   -2.3    7.8
I     5.5   -6.8    7.9
I     8.9   -5.8    5.0
H     5.0    5.7    8.9
P    10.8   -3.3   -3.4
H    -9.3    5.8   -4.5
H     5.1    5.6   -9.1
H     5.9    4.2   -9.3
I    -9.3   -5.0   -5.4
N    -5.9    4.7    9.2
I     1.9   -0.9  -11.7
C    -9.0    7.3   -3.0
H    -6.8    4.3    8.9
H     8.3   -5.4   -6.8
H    10.3    2.2    5.8
N     5.2  -10.8    0.2
P   -11.1    4.5    1.1
H    -6.7    4.2   -9.1
H    11.8   -0.2    2.2
H     4.3  -11.3   -0.1
H    -9.2   -6.9   -3.7
P   -11.1   -3.3   -3.4
H    10.7   -5.4    1.3
H    -2.1    8.7   -8.1
I     2.3   -8.9   -7.8
P     3.4   -5.8   10.1
H    -5.8    5.6   -9.1
H    -5.9    5.7    8.9
H    -1.0   -5.3   10.9
I     4.8    8.0    7.8
N    -9.5   -0.8   -7.6
I    -6.2   -2.8   10.1
I     2.0  -12.0   -1.1
H     7.8    9.4   -0.1
P    -7.5    9.6    1.1
I    -1.7   -9.2    7.9
N    -5.8  -10.8    0.2
C    -2.0   -5.8   10.7
C    -1.7    2.0  -12.0
H    -5.0  -11.3   -0.3
N    -9.1   -7.7   -3.1
P    -7.4   -5.9   -7.9
P     7.1   -8.4    5.6
H    -2.1    3.0  -11.8
H    -0.6    2.1  -12.2
C     5.4  -11.0    1.7
H    12.4    0.5   -0.1
P     7.1   -0.6   10.1
H    -9.3    5.7    5.9
H    -8.5    0.4   -9.0
N    -2.2    9.6   -7.6
N    12.4   -0.5    0.2
H    -8.6    0.5    9.0
H   -11.1   -5.4    1.3
C    -5.5  -11.0    1.7
H     6.3  -10.5    1.9
C    -9.2    6.6    5.2
I     9.6    1.4   -7.8
H     5.4   10.9   -3.1
H    -6.4  -10.5    2.2
N    -9.7    6.7   -4.3
H   -12.0    2.7   -2.5
I    -9.1    3.6    7.9
I     2.0  -11.9    3.4
H    -9.4   -1.7   -8.1
I    12.2    2.8   -1.2
H    -5.6   10.9   -3.1
I     1.9   11.1   -5.6
H     9.0    8.6    1.9
H    -4.6   -2.5  -11.5
P    10.8   -3.2    5.6
H     5.3    3.5   10.9
I     1.1    7.5   10.1
H     4.6   -2.5  -11.5
P    -0.1   12.2   -3.4
H    -0.2   10.0   -7.8
H    -2.8   -5.3   11.2
H   -11.9    1.3   -4.4
I    -9.8   -8.1    1.1
