         400
 sphere cut out from bulk 
P     0.5   -0.1   -0.8
I    -0.6    2.0    1.3
I    -0.8   -2.2    1.3
I     2.9   -0.3    1.3
P     0.5   -0.1    3.4
I    -1.9    0.1   -2.9
I     1.9    2.0   -2.9
I     1.7   -2.2   -2.9
H    -3.2    2.9    0.1
H    -3.5    1.9   -2.2
H     0.1   -4.5    0.7
H    -3.2   -2.6    2.1
H    -4.4    1.6    0.0
C    -4.2    2.6   -0.3
P     0.5   -0.0   -5.0
H     1.2   -4.7   -1.5
H     4.9    1.6    0.0
N    -4.1    2.7   -1.8
H    -0.3    4.6    2.7
H     4.5   -2.0    2.1
H    -0.6   -5.1   -1.5
H     4.2    2.5   -2.2
N     0.5   -5.4    0.4
H     4.4    3.4    0.0
C     0.4   -5.4   -1.1
N    -4.2   -2.8    2.5
H    -4.8   -2.0    2.1
H    -3.8    3.6   -2.1
H     1.4   -5.6    0.7
C     5.2    2.6   -0.3
I    -2.0    0.1    5.5
H     1.4    5.0    2.6
H    -4.9    3.4    0.0
H    -3.7   -1.6   -4.4
H    -5.1    2.5   -2.2
H    -3.9   -1.7    4.3
C     0.5    5.3    3.0
N     5.2    2.7   -1.8
I     1.5   -2.2    5.5
I     1.8    2.1    5.5
H    -0.2   -6.2    0.7
H    -4.5   -3.7    2.1
H     1.2    4.4   -4.4
H     3.7   -3.0   -4.1
N     5.1   -2.8    2.5
C    -4.2   -2.7    4.0
H     4.8   -3.7    2.1
H     5.8    1.9   -2.2
I    -6.4   -0.3    1.3
H    -3.5   -3.5    4.3
H     0.8    4.3    4.8
H     0.7   -6.4   -1.5
H     4.1   -3.0    4.3
H     6.1    2.9    0.1
H     0.2    6.3    2.7
C    -4.0   -2.3   -5.2
H    -3.0   -2.7   -5.6
N     0.5    5.3    4.5
H     5.5    3.6   -2.1
H     6.1   -2.6    2.1
H    -4.2   -4.0   -3.9
C     5.1   -2.7    4.0
H     5.4   -1.7    4.3
H    -0.6    6.0   -3.9
H    -0.1    4.4   -5.6
I    -2.9    5.9   -2.8
C     0.7    5.0   -5.1
I     3.8   -6.0    1.5
I    -3.1   -6.0   -2.8
H     5.6   -1.6   -4.4
I     4.0    5.9    1.4
N     4.5   -3.4   -4.6
H    -0.5    5.4    4.9
H    -5.2   -3.0    4.3
I    -0.7    2.1   -7.1
N    -4.8   -3.4   -4.6
H    -3.5    1.9    6.3
I    -0.7   -2.1   -7.2
H     5.1   -4.0   -3.9
H    -5.6   -3.0   -4.1
P     0.5    0.0    7.6
N     0.2    6.2   -4.5
I     2.9    0.0   -7.1
H    -4.6   -1.8   -6.0
C     5.4   -2.3   -5.2
H     1.1    6.0    4.9
H     4.8   -1.8   -6.0
H     0.9    6.7   -4.0
H     0.4   -4.2    6.6
H     4.2    2.5    6.3
H     4.2   -4.1   -5.3
I     7.4    0.1   -2.9
H     1.5    5.3   -5.9
H     5.8   -3.5    4.3
I    -5.3    5.9    1.4
I    -7.4    2.0   -2.9
H    -3.8    3.6    6.3
I    -5.5   -6.0    1.5
I    -1.8   -7.9    1.4
N    -4.2    2.6    6.7
H    -5.1   -4.1   -5.3
H    -5.1    2.5    6.3
I    -7.7   -2.2   -2.9
I    -1.8    8.2    1.4
H    -1.0   -5.1    6.8
I    -2.9    5.8    5.6
H    -0.2    6.8   -5.3
N    -0.1   -4.8    7.3
H     5.8    1.9    6.3
N     5.1    2.6    6.7
P    -8.8   -0.1   -0.8
H     6.3   -2.7   -5.6
I     2.7    8.0   -2.8
I    -3.0   -6.1    5.7
I     8.5   -2.2    1.3
I     8.7    2.0    1.3
I     2.7   -8.2   -2.8
I     6.2   -6.0   -2.8
H    -0.5   -4.1    8.1
H     5.5    3.6    6.3
P    -4.2    8.0   -0.7
I     6.4    5.9   -2.8
P    -4.2   -8.1   -0.7
I     7.3    0.1    5.5
P     0.5    0.1   -9.2
H    -3.2    3.0   -8.3
P    -8.9   -0.1    3.4
P     5.1    8.0   -0.7
C    -4.2    2.6    8.2
H    -8.1   -4.7   -1.5
I    -7.5    2.1    5.5
I    -6.4    0.0   -7.1
H    -4.3    1.7   -8.4
H    -3.2    2.9    8.5
P     5.1   -8.1   -0.7
H    -0.4   -4.0   -8.8
H    -4.4    1.5    8.5
H    -7.9   -5.6    0.7
P    -4.2    8.0    3.6
H    -7.9    5.0    2.6
H     1.0   -6.5    7.1
I    -7.8   -2.2    5.5
P    -4.2   -8.1    3.6
H     0.7    9.7   -1.5
C     0.7   -5.9    7.9
P     9.8   -0.1   -0.8
H     5.0    1.7   -8.4
H     4.9    1.5    8.5
I    -0.8   -2.2    9.6
C     5.1    2.6    8.2
H     4.4    3.3   -8.3
I    -0.8    2.0    9.7
C    -4.1    2.7   -8.7
I     4.0   -6.0   -6.9
I     4.0    5.9   -7.0
I     2.7    7.8    5.6
H    -0.2   10.0    0.7
H     4.3    3.2    8.5
H     1.6   -5.3   -8.4
H     1.6   -5.4    8.4
I     2.9   -0.1    9.7
P    -8.8   -0.0   -5.0
P     5.1    8.0    3.6
H     0.2   -9.8    2.7
H    -8.1    4.4   -4.4
H    -4.9    3.3   -8.3
I   -10.0    2.0    1.3
H     8.7   -5.1   -1.5
P    -4.2    8.0   -4.9
H    -9.2   -4.5    0.7
H     0.9   -9.4   -4.0
P     5.1   -8.1    3.6
H     0.1   -6.3   -8.2
P     9.8   -0.1    3.4
I     6.4    5.8    5.6
N    -8.9   -5.4    0.4
H    -5.0    3.2    8.5
P    -4.2   -8.2   -4.9
I     2.7   -8.3    5.6
C     5.2    2.7   -8.7
H     9.0    4.6    2.7
H     9.4   -4.5    0.7
I     6.3   -6.1    5.7
C    -8.9   -5.4   -1.1
I   -10.1   -2.2    1.3
N    -0.1   -4.6   -9.5
I    -5.3   -6.0   -6.9
I    -5.3    5.9   -7.0
C     0.7   -5.7   -8.9
P     5.1    8.0   -4.9
H    -8.5    4.3    4.8
H     1.4   10.6    0.7
H    -0.2   -9.3   -5.3
I    -1.7    8.0   -6.9
I    -6.7    8.0   -2.8
C    -8.9    5.3    3.0
N     0.4   10.7    0.4
H     0.1   -6.4    8.7
H     6.1    3.0   -8.3
I    -1.7   -8.1   -6.9
C     0.4   10.7   -1.1
P     5.1   -8.2   -4.9
H     6.1    2.9    8.5
H    -8.6   -6.4   -1.5
I    -6.6   -8.2   -2.8
H    -0.6  -10.2   -3.9
N     0.2   -9.9   -4.5
I     3.8   10.2    1.5
H    -9.6    4.6    2.7
H     0.5   -4.1  -10.2
I    -3.1   10.2   -2.8
I    -2.9  -10.2   -2.8
P     9.8   -0.0   -5.0
I     7.5   -7.9    1.4
I     4.0  -10.2    1.4
H     9.1   -6.2    0.7
H    -0.6   11.0   -1.5
H    -7.9    5.3   -5.9
N     9.8   -5.4    0.4
C    -8.6    5.0   -5.1
C     9.7   -5.4   -1.1
N    -8.8    5.3    4.5
H     8.7    6.0   -3.9
H    -0.9   -5.0  -10.0
I     7.5    8.2    1.4
H    -9.9   -5.1   -1.5
C     0.5  -10.8    3.0
H    -8.2    6.0    4.9
H    -3.5    2.0  -10.5
H     1.1  -10.1    4.9
N    -4.1    2.7  -10.2
H    -9.5   -6.2    0.7
I     8.6    2.1   -7.1
I     8.6   -2.1   -7.2
H    -9.1    6.3    2.7
H     8.8    5.4    4.9
I    -1.9    0.2  -11.3
H    -8.4    6.7   -4.0
C     9.8    5.3    3.0
H     1.5  -11.1    2.6
I    11.0   -2.2   -2.9
I   -11.2    0.1   -2.9
H     1.1   11.4   -1.5
I    -5.3  -10.2    1.4
H    10.5   -4.7   -1.5
I     1.6   -2.1  -11.3
H     9.2    4.4   -5.6
H     4.2    2.6  -10.5
I    -6.4   -0.1    9.7
I    -6.6    7.8    5.6
I    -5.5   10.2    1.5
I     1.8    2.2  -11.3
H     0.1   11.6    0.7
P    -8.8    0.0    7.6
H     1.0   -6.4   -9.7
H     9.5    6.3    2.7
N     5.2    2.7  -10.2
H    -3.8    3.7  -10.5
I    11.2    2.0   -2.9
N     0.5  -10.9    4.5
H    -0.4  -10.7    4.9
P     0.4   -0.1   11.8
H    -9.4    4.4   -5.6
P    -4.2    7.9    7.8
H    -8.9   -4.2    6.6
H    -0.3  -11.6    2.7
H     8.3   -5.1    6.8
I    -3.0   10.0    5.7
N    -9.2    6.2   -4.5
H    -4.6   -1.9   10.9
H    10.0   -6.4   -1.5
H    -3.1   -2.8   11.2
H    -5.1    2.6  -10.5
H     4.7   -1.9   10.9
H     1.0    9.6    7.1
N     9.8    5.3    4.5
H    -0.2    4.3   11.2
I    -6.6   -8.3    5.6
P    -4.2   -8.2    7.8
I     3.9    5.8    9.8
H    10.2    4.3    4.8
I    -2.8  -10.3    5.6
H    10.7   -5.6    0.7
H    10.8    5.0    2.6
H    10.5    4.4   -4.4
H     1.4    5.1   10.9
N     9.5    6.2   -4.5
H    -9.8    5.4    4.9
H    -9.9    6.0   -3.9
H     5.8    2.0  -10.5
I     6.2   10.2   -2.8
P     5.1    7.9    7.8
I     3.9   -6.1    9.9
I    12.2   -0.3    1.3
C    10.0    5.0   -5.1
C     0.7  -11.2   -5.1
I    10.8   -2.2    5.5
I     6.4  -10.2   -2.8
P     9.8    0.0    7.6
H     5.5    3.7  -10.5
P     5.1   -8.2    7.8
I   -10.0    2.1   -7.1
H     1.5  -10.9   -5.9
I   -10.0   -2.1   -7.2
H     9.1    6.8   -5.3
H     9.7   -4.2    6.6
I   -11.3    0.1    5.5
C    -4.0   -2.4   11.6
I    11.1    2.1    5.5
H    -7.7   -5.3   -8.4
H     1.2  -11.8   -4.4
I    -5.4    5.8    9.8
H    -7.8   -5.4    8.4
H     8.8   -4.1    8.1
N     9.2   -4.8    7.3
C     0.7    4.8   11.7
P    -8.8    0.1   -9.2
H    -8.3   -6.5    7.1
H     0.9  -11.8    4.8
P    -4.1    8.0   -9.0
P    -4.1   -8.1   -9.0
H     0.1    9.9   -8.2
H     0.9    4.5  -12.0
H   -12.5    2.9    0.1
I    -1.8    7.9    9.9
I    -5.4   -6.1    9.9
H    10.2    6.7   -4.0
H    -9.5    6.8   -5.3
N    -9.4   -4.8    7.3
I     3.9   10.1   -6.9
H     4.2   -4.2   11.5
I    -2.9   -6.0  -11.1
H   -12.5   -2.6    2.1
H    -1.0   11.0    6.8
I    -2.8    5.9  -11.2
H    -0.1  -11.7   -5.6
H    10.4    6.0    4.9
C     0.7   10.3    7.9
I     4.0  -10.2   -7.0
C     5.3   -2.4   11.6
I    -1.8   -8.2    9.9
I     7.6    8.0   -6.9
H     0.0    9.8    8.7
I     8.5   -2.2    9.6
I     7.6   -8.1   -6.9
H    -8.7    9.7   -1.5
C    -8.6   -5.9    7.9
H    -3.8   -1.7   12.4
H   -12.8    1.9   -2.2
H     8.9   -4.0   -8.8
I     8.5    2.0    9.7
H     6.2   -2.8   11.2
H    -0.4    5.5  -11.9
P     5.2    8.0   -9.0
I     6.3   10.0    5.7
P     5.2   -8.1   -9.0
H     1.1    4.2   12.5
H    -3.9   -1.6  -12.5
H    -7.9   10.6    0.7
H    -8.4   -9.4   -4.0
H    -5.1   -4.2   11.5
H    -3.7  -12.5   -2.1
H    -9.8   -4.1    8.1
H    10.8    5.3   -5.9
H    -0.3    6.7   11.6
H   -10.3   -5.1    6.8
H    -3.4   -3.3  -12.5
I    -5.4   10.1   -6.9
I     6.5  -10.3    5.6
H    -4.6   12.4    2.1
P     0.5    0.1  -13.4
N     0.6    5.4  -12.3
H    -4.2   12.2   -3.9
I    -5.3  -10.2   -7.0
P     9.8    0.1   -9.2
H     4.7   12.4    2.1
H     1.2    6.1  -11.9
N     4.5   -3.5   12.2
H     4.2   -2.9  -12.5
H     4.4  -12.8    0.0
N    -0.2   11.4    7.3
I     7.4    0.2  -11.3
H     9.1   10.0    0.7
H    -3.1  -13.2    0.1
H     3.6   -3.2   12.7
N    -4.8   -3.5   12.2
C    -8.6   -5.7   -8.9
H    -4.9  -12.8    0.0
H    -9.1   -9.8    2.7
H     0.4   11.9    6.6
H    -9.7   -4.0   -8.8
I   -11.1   -7.9    1.4
H     1.5   10.7    8.4
H     5.5   -1.7   12.4
C     0.7   10.4   -8.9
N     0.1    6.1   12.3
H   -13.1    3.6   -2.1
C   -13.5    2.6   -0.3
I    -7.5    2.2  -11.3
H     5.4   -1.6  -12.5
