         400
 sphere cut out from bulk 
I     0.8    0.8    0.7
P    -0.9   -1.9    0.7
H    -0.9    1.2   -2.8
I    -0.6   -2.1   -2.5
H    -0.6    3.0   -1.2
H     2.0   -1.5   -2.2
I    -3.6   -0.3    0.7
H    -0.4    2.7    2.5
H     0.8    2.9   -2.2
H     3.3   -1.5   -1.1
N    -0.3    3.1   -2.2
N     3.0   -1.3   -2.1
C    -1.0    2.3   -3.1
H     3.2   -0.3   -2.4
I     1.9   -3.7    0.7
H    -2.1    2.5   -3.0
P     3.7    2.5    0.7
I    -0.7   -2.2    3.9
N    -0.2    3.0    3.5
H    -0.9    1.2    4.4
H     0.8    2.9    3.7
I     3.4    2.3   -2.5
H    -0.7    2.4   -4.1
H    -0.4    4.1   -2.4
I    -2.5    4.2    0.6
H     2.9   -2.7    2.9
C    -1.1    2.3    4.5
H     2.1   -2.3    4.2
H     3.7   -0.6    3.8
I     5.3   -0.3    0.7
C     3.8   -2.2   -3.0
H    -2.1    2.5    4.2
H    -4.0   -2.0   -2.9
H    -0.4   -4.8   -2.4
H    -0.4    4.1    3.5
I    -2.5   -4.8    0.6
N     3.0   -2.6    3.9
H     3.6   -3.3   -2.7
I     1.9    5.2    0.7
H     3.5   -2.1   -4.0
H    -3.9   -1.8    3.8
I     3.4    2.6    3.9
P    -5.2    2.5    0.7
H    -5.6   -1.5   -1.1
I     1.1    0.5   -5.9
H     4.9   -2.0   -2.9
C     4.0   -1.5    4.2
H    -0.4   -4.9    3.5
H    -0.6   -5.9   -1.2
P    -0.9   -2.0   -5.7
H    -0.9    2.7    5.5
N    -0.3   -5.8   -2.2
H    -5.7   -0.3   -2.4
C    -5.1   -2.2   -3.0
N    -5.9   -1.3   -2.1
H     0.7   -6.0   -2.2
H     3.3   -3.5    4.3
H    -5.2   -0.6    3.8
I    -3.3   -0.1   -5.6
I    -5.5    2.3   -2.5
H     5.0   -1.8    3.8
C    -4.9   -1.5    4.2
H    -0.4   -6.2    2.5
H    -5.3   -3.3   -2.7
H     4.0   -1.4    5.3
N    -0.3   -5.9    3.5
H    -5.4   -2.1   -4.0
P    -0.9    7.0    0.7
H     0.7   -6.0    3.7
H    -6.0   -2.7    2.9
P     3.6    2.4   -5.7
I    -5.5    2.6    3.9
H     3.6    5.6   -2.7
I     1.6   -4.0   -5.9
I    -0.6    6.8   -2.5
H    -4.9   -1.4    5.3
H    -2.1   -6.4   -3.0
I     1.6   -0.1    7.2
H    -6.9   -1.5   -2.2
C    -1.1   -6.7   -3.1
P     3.6   -6.4    0.7
H     3.0    6.2    2.9
P    -0.9   -2.1    7.2
N    -5.9   -2.6    3.9
I    -2.9    0.4    7.0
I     6.4    4.2    0.6
H     3.3    5.4    4.3
H    -0.7   -6.5   -4.1
I    -2.8    4.4   -5.7
I     3.3   -6.6   -2.5
I    -0.6    6.7    3.9
I    -2.9   -4.5   -5.7
I     1.6    4.9   -5.9
H     6.8    2.5   -3.0
H    -5.6   -3.5    4.3
I     5.6   -0.1   -5.6
I    -7.0   -3.7    0.7
H     2.0    7.4   -2.2
I     6.4   -4.8    0.6
H    -2.2   -6.4    4.2
N     3.1    6.3    3.9
C    -1.1   -6.6    4.5
H     2.1    6.6    4.2
I    -8.1    0.8    0.7
I     3.3   -6.3    3.9
P    -5.3    2.4   -5.7
H    -5.2    5.6   -2.7
H    -0.3    3.1   -7.6
I     0.8   -8.1    0.7
H    -0.9   -7.7   -2.8
P     8.0   -1.9    0.7
H     3.3    7.5   -1.1
C     3.8    6.7   -3.0
P    -5.2   -6.4    0.7
H    -0.9   -6.2    5.5
P     3.5    2.4    7.2
H     6.8    2.5    4.2
H    -6.8   -2.3    4.2
H     3.6   -1.8   -7.4
N     3.1    7.6   -2.1
H    -4.0    6.9   -2.9
H     8.0    1.2   -2.8
I     1.1    4.4    7.3
I     1.0   -4.5    7.3
H     3.5    6.8   -4.0
H    -1.1    1.0   -8.6
I    -7.0    5.2    0.7
C     7.9    2.3   -3.1
I    -3.4   -4.0    7.0
H    -0.9   -7.7    4.4
H    -5.6    5.4    4.3
I     8.3   -2.1   -2.5
C    -5.1    6.7   -3.0
H    -8.1    2.9   -2.2
H     8.3    3.0   -1.2
H     4.9    6.9   -2.9
I    -5.6   -6.6   -2.5
H    -3.9    7.1    3.8
P    -0.8    6.9   -5.7
H    -5.9    6.2    2.9
C    -0.4    3.0   -8.7
H     2.4   -1.9   -8.7
H    -2.3    2.2   -8.6
I    -1.0   -1.8   -9.0
H    -1.0    2.4    8.9
I    -3.4    4.9    7.0
H     8.0    1.2    4.4
I     6.0    0.4    7.0
H    -5.3   -1.8   -7.4
P    -5.3    2.4    7.2
H     8.5    2.7    2.5
I    -5.5   -6.3    3.9
N    -1.4    1.9   -9.0
C     7.8    2.3    4.5
C     3.4   -2.1   -8.4
P     3.6   -6.5   -5.7
I     8.2   -2.2    3.9
H    -8.1    2.9    3.7
H    -5.6    7.5   -1.1
I    -3.6    8.6    0.7
I     6.1    4.4   -5.7
I     6.0   -4.5   -5.7
C     4.0    7.4    4.2
N     8.6    3.1   -2.2
H     0.6    2.7   -9.0
H     3.2    8.6   -2.4
N    -5.8    6.3    3.9
H     8.2    2.4   -4.1
H     5.0    7.1    3.8
H    -0.4   -5.8   -7.6
H    -5.4    6.8   -4.0
H     3.7   -2.1    8.8
I     0.9    9.7    0.7
I    -7.8    0.5   -5.9
H     3.6   -3.2   -8.5
I     5.5   -4.0    7.0
H     6.8   -6.4   -3.0
H     8.5    4.1   -2.4
I     9.7    0.8    0.7
N    -5.8    7.6   -2.1
C    -4.9    7.4    4.2
N     8.7    3.0    3.5
H     3.7    8.4    3.8
N    -9.1    3.1   -2.2
I    -3.7   -9.2    0.7
P    -0.9    6.9    7.2
H    -0.7    3.9   -9.1
H    -3.6   -1.6   -9.2
H    -9.3    2.7    2.5
H     8.5   -4.8   -2.4
H    -9.5    3.0   -1.2
P    -9.8   -1.9    0.7
I     3.8    2.3   -9.0
H     3.1   -9.2   -2.4
I    -9.5   -2.1   -2.5
H     8.5    4.1    3.5
P     8.0   -2.0   -5.7
H     4.1    7.5    5.3
H     8.0    2.7    5.5
C    -0.7    2.2    9.9
I     5.3    8.6    0.7
P    -5.3   -6.5   -5.7
I    -7.3   -4.0   -5.9
I     5.5    4.9    7.0
H     4.1   -0.4   -9.3
H     6.7   -6.4    4.2
H     8.3   -5.9   -1.2
N    -9.1    3.0    3.5
H    -9.8    1.2   -2.8
C    -5.5   -2.1   -8.4
H    -1.4    1.8  -10.0
H    -0.9    1.2   10.2
I    -7.3   -0.1    7.2
P     3.5   -6.5    7.2
H     0.4    2.4   10.0
H    -6.9    7.4   -2.2
H     9.7    2.9   -2.2
I     1.1   -8.4   -5.9
H     2.3   -2.0    9.9
H     8.4   -4.9    3.5
H    -6.8    6.6    4.2
H    -8.2   -6.0   -2.2
H    -4.8    7.5    5.3
N     4.3   -1.4   -9.4
H    -5.2   -2.1    8.8
H    -0.8   -5.0   -9.1
H    -9.3    4.1   -2.4
H    -5.3   -3.2   -8.5
C    -0.4   -5.9   -8.7
H    -4.8   -0.4   -9.3
I    -7.3    4.9   -5.9
H    -5.2    8.4    3.8
I    -5.0    2.3   -9.0
H    -0.8   10.1   -2.8
N    -4.6   -1.4   -9.4
H    -5.7    8.6   -2.4
N     8.6   -5.8   -2.2
I    -9.6   -2.2    3.9
C     3.3   -2.2    9.8
I     5.2   -9.2    0.7
C    -9.9    2.3   -3.1
P     8.0    7.0    0.7
H    -9.6    2.4   -4.1
I    -1.2   -2.1   10.4
H     5.3   -1.6   -9.2
C     7.8   -6.7   -3.1
H    -9.3   -4.8   -2.4
H    -9.3    4.1    3.5
H     9.7    2.9    3.7
H    -9.7    1.2    4.4
H     8.5   -6.2    2.5
H    -8.1   -6.0    3.7
H     3.6   -9.5    3.8
H     2.0  -10.4   -2.2
N     3.0  -10.2   -2.1
H     3.7    5.7   -8.5
P    -1.0  -10.8    0.7
P     8.0   -2.1    7.2
H     3.3  -10.4   -1.1
H     3.7    7.2   -7.4
I    -3.3    8.9   -5.6
H     0.6   -6.2   -9.0
N     8.6   -5.9    3.5
H    -6.5   -1.9   -8.7
I     8.3    6.8   -2.5
N    -9.2   -5.8   -2.2
H    -1.1   -6.6    8.9
P    -5.4   -6.5    7.2
H     6.6    2.2   -8.6
I    -3.4   -9.0   -5.6
H    -0.8   10.2    4.4
H    -9.3   -4.9    3.5
I     1.1    9.4   -5.9
C     7.8   -6.6    4.5
H    -5.8   -9.2   -2.4
C   -10.0    2.3    4.5
H     3.5   -3.3   10.1
H    10.9   -1.5   -2.2
H     8.2   -6.5   -4.1
H     4.0   -0.3   10.5
H    -2.3   -6.8   -8.6
H    -9.5   -5.9   -1.2
H     4.1   -1.7  -10.4
I    -0.7  -11.0   -2.5
N    -1.5    3.1   10.8
I     3.8    2.3   10.4
I     8.3    6.7    3.9
C     3.5    6.8   -8.4
H    -2.5    2.9   10.7
H    -1.3    4.1   10.5
H     2.4    7.0   -8.7
I    -2.9   -8.5    7.0
H     8.0   -7.7   -2.8
N    -9.2   -5.9    3.5
I    10.8   -3.7    0.7
H    -3.8   -1.6   10.7
I    -1.0    7.1   -9.0
N    -1.4   -7.0   -9.0
P    -9.8   -2.0   -5.7
H    -5.3   -9.5    3.8
H    -9.3   -6.2    2.5
H    -5.2    5.7   -8.5
C    -5.6   -2.2    9.8
H    -9.8    2.7    5.5
I    -8.1   -8.1    0.7
H     8.0   -6.2    5.5
I     1.6    8.8    7.2
H     9.6   -6.0   -2.2
H    -4.8   -1.7  -10.4
H    -5.2    7.2   -7.4
I    -7.8    4.4    7.3
N     4.1   -1.3   10.7
H    -4.9   -0.3   10.5
I    10.0    0.5   -5.9
I     1.5   -9.0    7.2
C    -1.0   11.2   -3.1
I    -7.9   -4.5    7.3
H     7.8    1.0   -8.6
H   -11.0    2.5   -3.0
H    -1.4   -4.8   10.5
H    -1.1   -7.9   -8.6
H     3.7    6.9    8.8
I     3.8   -6.7   -9.0
I    -5.1    2.3   10.4
N    -4.8   -1.3   10.7
I    -0.7  -11.1    3.9
H     8.6    3.1   -7.6
H    -5.6  -10.4   -1.1
I     5.6    8.9   -5.6
N     7.5    1.9   -9.0
H    -0.3   11.6    2.5
C     3.9  -10.4    4.2
H    -5.4   -3.3   10.1
I     5.5   -9.0   -5.6
H     0.3   -6.5   10.0
H     8.0   -7.7    4.4
I    -9.5    6.8   -2.5
H     5.1   -1.6   10.7
H     9.6   -6.0    3.7
H    11.0   -2.3    4.2
C    -0.7   -6.7    9.9
H    -4.1  -10.9   -2.9
H    -2.0   11.4   -3.0
P     3.7   11.4    0.7
H    -0.5   12.0   -1.2
N    -5.9  -10.2   -2.1
I    -2.9    9.3    7.0
I     3.4   11.3   -2.5
P    -9.8    7.0    0.7
H    -4.0  -10.7    3.8
I    10.8    5.2    0.7
H   -11.0    2.5    4.2
H    -6.6   -2.0    9.9
H     0.8   11.8   -2.2
P     8.1    6.9   -5.7
H    -0.6   11.3   -4.1
I     7.9   -1.8   -9.0
H     7.9    2.4    8.9
C    -5.4    6.8   -8.4
H     3.5    5.7   10.1
C    -1.0   11.2    4.5
I   -11.4    4.2    0.6
C     3.8  -11.2   -3.0
N    11.9   -1.3   -2.1
H     2.0  -11.2    4.2
H     3.4  -11.0   -4.0
H    -1.2    3.0   11.8
H     4.0  -10.3    5.3
N    -0.2   12.1   -2.2
H     4.8  -10.9   -2.9
C    -4.9  -10.4    4.2
I    -5.1   -6.7   -9.0
H    -5.2    6.9    8.8
I    -9.5    6.7    3.9
H    -9.6   -6.5   -4.1
H    12.1   -0.3   -2.4
H    -3.6    7.4   -9.2
H     2.3    7.0    9.9
H     2.9  -11.6    2.9
H    12.2   -1.5   -1.1
H    -9.2    3.1   -7.6
P    -9.8   -2.1    7.2
N    -1.5   -5.8   10.8
H    -2.1   11.4    4.2
C     3.4    6.7    9.8
P    -0.7   -2.0  -12.2
P    -0.9  -10.9   -5.7
C   -10.0   -6.7   -3.1
H     0.8   11.8    3.7
H     4.9  -10.7    3.8
I   -11.4   -4.8    0.6
H     3.8   -1.5   11.7
H    -1.5   -7.1  -10.0
I     2.0   -0.3  -12.3
N    -0.2   12.0    3.5
H    11.8   -2.7    2.9
I    -1.1    6.8   10.4
I    -2.5    0.8  -12.2
N     3.0  -11.5    3.9
C     8.5    3.0   -8.7
