         400
 sphere cut out from bulk 
P     1.2    0.6   -0.8
I     0.4    0.4    2.3
I    -0.8   -1.9   -1.3
H     0.7   -2.7    1.4
H    -2.2   -0.1    2.4
I    -1.3    2.6   -1.3
H    -2.6   -0.6   -2.8
H    -3.1    1.9    1.5
H    -3.6   -0.4    1.5
N    -3.2    0.0    2.4
H    -2.8    1.0   -2.7
I     3.7   -1.4   -0.3
C     1.1   -3.7    1.7
I     1.9    0.7   -3.9
I     3.1    3.1   -0.4
N    -3.2    0.2   -3.1
C    -3.5    1.5    2.4
H     2.1   -3.8    1.3
H     0.5   -4.5    1.5
H     1.9   -2.8    3.5
H    -3.6   -0.5    3.2
H     0.4    4.6    1.5
H    -3.1    1.9    3.3
H    -4.1   -0.0   -2.7
N     1.2   -3.5    3.2
H     0.3   -3.4    3.6
H    -0.2    4.0   -3.1
H     4.3    1.6    2.4
H     1.9   -3.8   -2.9
P    -3.3   -4.0   -0.8
H    -0.3   -3.6   -3.9
I    -2.7   -4.0    2.4
I    -5.2   -1.4   -0.3
H    -4.6    1.6    2.4
H     4.8   -0.0   -2.7
H    -2.3    0.4   -5.0
H     5.3   -0.4    1.5
C    -3.3    0.3   -4.6
P     1.1    0.6    5.5
C     1.1    5.4    1.7
H     2.1    3.8   -3.9
H     2.1    5.3    1.3
H    -0.1   -5.1   -3.1
H     1.6   -4.4    3.6
N     0.2   -4.5   -3.9
C     1.7   -4.3   -3.9
N     0.1    4.6   -3.9
C     5.4    1.5    2.4
H     1.6    4.7    3.6
P    -3.3    5.1   -0.8
N     5.7    0.0    2.4
H     5.3   -0.5    3.2
H    -3.7   -0.6   -5.0
I    -2.7    5.1    2.4
I    -0.8   -1.9    5.9
I     3.6   -1.4    4.9
H    -0.2    4.1   -4.8
H     5.8    1.9    1.5
H    -3.9    1.1   -4.8
H     2.0   -3.7   -4.7
H     1.9    5.3   -2.9
C     1.6    4.8   -3.9
N     5.7    0.2   -3.1
N     1.2    5.6    3.2
H     0.6    6.4    1.4
I    -5.8    3.1   -0.4
I    -3.7   -3.8   -4.0
I    -1.3    2.7    5.9
I     3.1    3.1    5.0
I    -1.3   -6.5   -1.3
H    -0.4    5.5   -3.9
H     6.1    1.0   -2.7
I     3.2   -6.0   -0.4
H     0.2    5.7    3.6
H    -0.1   -5.0   -4.8
H     2.1   -5.3   -3.9
P     5.6   -4.0   -0.8
H     5.8    1.9    3.3
H     6.4   -0.6   -2.8
I    -0.7   -1.9   -6.7
H     5.0    1.1   -4.8
H     6.8   -0.1    2.4
P     1.2    0.6   -7.1
H     5.2   -0.6   -5.0
C     5.6    0.3   -4.6
I    -1.2    2.7   -6.6
I    -0.9    7.2   -1.3
I    -5.3   -1.4    4.9
H     1.9    5.4   -4.7
H     1.8    6.3    3.5
P    -3.3   -4.0    5.5
I     5.2   -3.8   -4.0
P     5.6    5.1   -0.8
I    -3.7    5.3   -4.0
I     6.3   -4.0    2.4
P    -7.7    0.6   -0.8
H    -6.8   -3.8    1.3
H    -3.0   -7.2    1.5
H    -2.4    0.4    7.6
I    -7.1    0.7   -3.9
I     7.6    2.6   -1.3
P    -3.4    5.1    5.5
I    -5.7   -6.0   -0.4
H     6.6    0.4   -5.0
I    -5.9    3.1    5.0
H    -7.1   -2.8    3.5
I     3.1   -6.0    5.0
I     6.2    5.1    2.4
I     5.2    5.3   -4.0
I     8.1   -1.9   -1.3
H    -3.0   -7.2    3.3
H    -7.0   -3.8   -2.9
H    -3.8   -0.7    7.6
I     3.7    7.7   -0.3
P     1.2   -8.5   -0.8
I     3.7   -1.4   -7.7
C    -3.4    0.3    8.0
C    -3.5   -7.6    2.4
P    -3.2   -4.0   -7.1
H    -6.8    3.8   -3.9
H    -6.8    5.3    1.3
C    -7.8   -3.7    1.7
H    -8.2   -2.7    1.4
P     5.6   -4.0    5.5
I     3.2    3.2   -7.6
I    -8.5    0.4    2.3
H    -4.0    1.1    7.8
H    -0.3    4.1    7.8
I    -1.3   -6.4    5.9
I     1.7    0.7    8.6
H     1.8   -3.7    7.8
H    -2.7   -8.1   -2.7
I     0.5   -8.7    2.3
H     4.4   -7.5    2.4
N    -7.7   -3.5    3.2
H    -4.6   -7.5    2.4
H     5.1   -0.7    7.6
H    -7.0   -3.7   -4.7
H     4.9    1.1    7.8
H    -7.3   -4.4    3.6
H    -0.3   -5.0    7.8
H    -7.0    5.3   -2.9
I    -1.2   -6.4   -6.6
C    -7.3   -4.3   -3.9
I    -0.9    7.1    5.9
H    -2.6    8.5   -2.8
P     5.5    5.1    5.5
I    -5.2    7.7   -0.3
I    -5.2   -1.4   -7.7
P    -3.3    5.1   -7.1
H     5.9   -7.2    1.5
H    -7.3    4.7    3.6
H    -0.4   -3.6    8.7
H    -6.8   -5.3   -3.9
I     1.9   -8.4   -3.9
H    -3.7    8.6    1.5
H    -2.2    9.0    2.4
H     0.4   -3.3   -8.9
C    -7.3    4.8   -3.9
P    -7.8    0.6    5.5
I     9.3    0.4    2.3
H     1.9    3.8    8.7
H    -8.4   -4.5    1.5
H     1.8    5.4    7.8
C     5.4   -7.6    2.4
H     2.0   -2.7   -9.1
C    -7.8    5.4    1.7
I    -5.8   -6.0    5.0
C     5.5    0.3    8.0
H    -8.5    4.6    1.5
H    -2.1   -9.2    2.4
N     0.1   -4.5    8.7
I     0.4    9.5    2.3
P     1.1    9.7   -0.8
I     3.6    7.7    4.9
N     0.0    4.6    8.7
I    -0.8    7.2   -6.7
C     1.5   -4.3    8.7
H     5.9   -7.2    3.3
H    -3.7    8.6    3.2
N    -3.1   -9.1    2.4
P     5.7   -4.0   -7.1
H    -8.6   -3.4    3.6
N    -3.2    9.1    2.4
H    -3.0    1.9   -9.3
N    -3.1   -8.9   -3.1
I    -9.7   -1.9   -1.3
I    -5.7    3.2   -7.6
I     7.6    2.7    5.9
H     6.5    0.4    7.6
H    -7.0    5.4   -4.7
H    -3.5   -0.5   -9.4
C     1.5    4.8    8.7
N    -3.3    0.2    9.5
N    -7.7    5.6    3.2
H     9.6   -2.7    1.4
H    -3.9   -8.0   -4.8
H     8.7    4.0   -3.1
I     7.6   -6.5   -1.3
H     8.6   -3.6   -3.9
N     1.4   -3.5   -9.4
H     1.8   -4.4   -8.9
H    -2.7   -0.6    9.8
I     3.2   -5.9   -7.6
H    -7.1    6.3    3.5
P    10.1    0.6   -0.8
I    -3.8   -3.8    8.6
P     1.2   -8.5    5.5
I     8.1   -1.9    5.9
H     5.3    8.6    1.5
H    -2.2   -8.7   -5.0
H     1.7    4.7   -8.9
I     0.6    0.4  -10.2
N    -3.2    9.3   -3.1
H    -3.6   -9.5    1.5
H    -0.3    4.0    9.5
H    -0.5    5.5    8.7
H    -4.1   -9.1   -2.7
H    -4.2    9.1   -2.7
H     2.0   -5.3    8.7
H    -2.9    1.0    9.9
H    -2.5   -9.7   -2.8
P     5.6    5.1   -7.1
H    -2.0   -0.1  -10.2
H    -9.1    4.0   -3.1
C    -3.2   -8.8   -4.6
P    -7.7    0.6   -7.1
H     9.2   -3.4    3.6
H     6.2   -8.1   -2.7
H    -3.8    8.5   -5.0
H     1.8   -3.8    9.6
I     7.7    2.7   -6.6
H     9.4    4.6    1.5
H    -8.3    6.4    1.4
H     9.4   -4.5    1.5
N    -8.7   -4.5   -3.9
I    -5.3    7.7    4.9
H     5.0   -8.0   -4.8
H     8.8   -5.1   -3.1
H     4.7    9.1   -2.7
H     5.2    8.6    3.2
H    -9.2   -3.6   -3.9
H     0.4    5.8   -8.9
I   -10.2    2.6   -1.3
N    -8.8    4.6   -3.9
H     4.8   -9.1   -2.7
N    -3.1    0.0  -10.2
H    -3.6   -9.6    3.2
I     1.8    9.8   -3.9
I     5.1   -3.8    8.6
H    -0.3   -5.1    9.5
I     8.2   -1.9   -6.7
H     8.7    4.1   -4.8
H    -4.2   -0.0    9.9
H    -9.1   -5.1   -3.1
C    10.0   -3.7    1.7
I    -3.9    5.3    8.6
H    -2.9   10.1   -2.7
C    -3.4    1.5  -10.2
H     5.4   -0.5   -9.4
N     9.1   -4.5   -3.9
N     9.0    4.6   -3.9
I     8.1    7.2   -1.3
H     8.6    5.5   -3.9
H     6.3    8.5   -2.8
H     4.7   -0.0    9.9
C    -3.3    9.4   -4.6
N     1.3    5.6   -9.4
N     5.7    9.1    2.4
H    -2.3    9.5   -5.0
H    -8.7    5.7    3.6
N     5.6    0.2    9.5
N     5.8   -9.1    2.4
H     5.4   -9.5    1.5
H    -9.1    4.1   -4.8
N     5.8   -8.9   -3.1
H     5.1    8.5   -5.0
P     1.3   -8.5   -7.1
I    -0.7  -11.0   -1.3
H     1.7    5.3    9.6
I     3.8  -10.5   -0.3
I    -5.7   -5.9   -7.6
H     8.8   -5.0   -4.8
H     5.9    1.9   -9.3
H    -7.1   -3.7    7.8
P     1.1    9.7    5.5
N    10.1   -3.5    3.2
H     4.4    1.6  -10.2
H     1.9    6.3   -9.1
I    -2.5   -4.0  -10.2
I    -7.2    0.7    8.6
H    -4.5    1.6  -10.2
N     5.7    9.3   -3.1
I     5.0    5.3    8.6
H   -11.1   -0.1    2.4
H    -9.0   -5.0   -4.8
C    -3.6   10.6    2.4
H     9.2    5.7    3.6
H     5.4   -9.6    3.2
H     6.7    9.0    2.4
C     5.7   -8.8   -4.6
H    -9.3    5.5   -3.9
P    10.0    0.6    5.5
I     3.7    7.7   -7.7
P    -7.7   -8.5   -0.8
I    -0.9   -1.9   11.3
I    10.8    0.7   -3.9
C    10.0    5.4    1.7
C     1.3   -3.6  -10.8
H    -3.7   -9.7   -5.0
H    -3.1   11.0    1.5
I    -9.7   -1.9    5.9
H     9.5    6.4    1.4
H     0.8   -2.7  -11.2
H     6.2   -0.6    9.8
I     7.6   -6.4    5.9
H    -3.5   -0.4  -11.1
I    -7.0   -8.4   -3.9
H     6.0    1.0    9.9
I    -5.1  -10.5   -0.3
H    -3.0    1.9  -11.1
H    10.8   -2.8    3.5
I    -1.5    2.6   11.3
C     5.5    1.5  -10.2
H     6.8   -9.2    2.4
H     4.2   10.7    2.4
I    -2.6    5.1  -10.2
H    -7.0    3.8    8.7
H    -6.9   -2.7   -9.1
H    11.0   -3.8    1.3
H    -2.4   -8.7    7.6
N     5.8    0.0  -10.2
H    -4.0   -8.0    7.8
H   -11.5   -0.6   -2.8
C     5.6    9.4   -4.6
H    10.8   -3.8   -2.9
P     1.1    0.6   11.8
I    -1.4   11.7   -1.3
H    -4.7   10.7    2.4
I    -9.6   -1.9   -6.7
H    -7.1    5.4    7.8
H    -3.2   11.0    3.3
H     0.7  -11.8    1.4
N    10.1    5.6    3.2
H     6.4   -9.7   -2.8
H     0.6   -4.5  -11.1
H    10.5   -4.4    3.6
H    -4.0   10.2   -4.8
H    -3.9    8.4    7.6
H     6.7   -8.7   -5.0
H     0.6    4.6  -11.1
I    -5.2    7.7   -7.7
I     7.8   -6.4   -6.6
H    10.5    4.7    3.6
C    10.6   -4.3   -3.9
H   -11.7    1.0   -2.7
C     5.3   10.6    2.4
H     2.3   -3.8  -11.3
P     1.2    9.7   -7.1
H     6.1   10.1   -2.7
H    -2.9   -7.2   -9.3
H     5.2   -9.7   -5.0
I   -10.2   -6.5   -1.3
I   -10.2    2.7    5.9
H     4.9   -8.0    7.8
I     3.7  -10.5    4.9
C    10.5    4.8   -3.9
I    -9.8    7.2   -1.3
I     1.8   -8.4    8.6
C     1.2    5.5  -10.8
C    -7.4   -4.3    8.7
H   -12.0    1.9    1.5
I     8.0    7.1    5.9
H    11.0    3.8   -3.9
H   -11.2    0.4   -5.0
H    -7.2   -4.4   -8.9
H    11.0    5.3    1.3
H    -6.9   -5.3    8.7
H     6.9   -0.1  -10.2
H     8.6    4.1    7.8
I    -8.4   -8.7    2.3
H     5.4   -0.4  -11.1
N   -12.1    0.0    2.4
H     4.9   10.2   -4.8
H    10.8    5.3   -2.9
C    -3.4   -8.8    8.0
P    10.2    0.6   -7.1
I   -10.1    2.7   -6.6
C    -7.4    4.8    8.7
H    -7.2    4.7   -8.9
H    -2.5    9.5    7.6
H    10.9   -3.7   -4.7
H     5.0    8.4    7.6
I   -11.6   -4.0    2.4
P    -7.8    9.7   -0.8
I    12.1    3.1   -0.4
N   -12.1    0.2   -3.1
H     1.9  -11.9    3.5
H     5.8   11.0    1.5
I    -0.8  -11.0    5.9
