         400
 sphere cut out from bulk 
P     0.4   -0.0    0.1
I    -2.2   -0.5    2.0
I    -1.4   -0.4   -2.6
I    -0.3    3.1   -0.1
I     1.1   -3.2    0.2
I     2.2    0.5    2.7
I     3.0    0.5   -1.9
H     0.6   -2.4    3.2
H    -0.1    1.6   -3.8
H    -2.8    3.1   -0.6
H    -2.7   -3.2   -0.9
H     0.7    2.3    3.6
H    -3.7   -2.3    1.1
H    -3.9    2.2    1.4
H     3.5    3.1    0.9
H    -0.7   -2.4   -4.1
C     0.1   -2.8    4.0
H     3.7   -3.2    0.8
H    -0.9   -3.1    3.7
H     0.1    3.9   -3.1
H    -4.3    2.3   -1.0
H    -4.2   -2.3   -1.2
N    -3.9    3.1   -0.5
C    -3.8   -3.2   -0.8
H     1.7    3.2   -3.5
N     0.0    2.3   -4.5
H    -0.8    3.1    4.0
N     0.3    3.1    4.1
H     4.6    2.3   -1.0
H    -0.0   -2.1    4.8
N    -4.1   -3.2    0.7
H     4.6   -2.3   -1.2
C     0.7    3.5   -3.9
C    -4.3    3.1    0.9
H     0.7    3.9    3.6
C     4.5    3.1    0.9
H     4.9    2.2    1.4
H    -3.7   -4.0    1.2
H    -0.9    2.6   -4.9
H     1.5   -3.4   -4.3
H     0.6    1.9   -5.3
N    -0.6   -3.2   -4.7
N     4.7   -3.2    0.7
H     5.1   -2.3    1.1
H    -3.9    4.0    1.4
H    -0.8   -4.0   -4.1
N     4.9    3.1   -0.5
H    -4.3    4.0   -1.0
C     5.0   -3.2   -0.8
H    -4.2   -4.1   -1.2
P    -4.1   -0.0   -4.5
H    -5.2   -3.2    0.8
H     4.6    4.0   -1.0
N     0.8   -4.0    4.6
P    -4.0    0.0    4.6
H     0.9   -4.7    3.9
C     0.8   -3.3   -5.2
I    -5.9    0.5   -1.9
H     4.6   -4.1   -1.2
H    -5.4    3.1    0.9
P     0.4    6.3    0.0
P     0.4   -6.3    0.0
H     1.0   -2.4   -5.8
C     0.7    3.1    5.5
H     0.3    2.2    6.0
H     0.8    4.3   -4.7
I    -3.3    3.1    4.5
H     1.7   -3.7    4.9
H    -1.2   -3.2   -5.5
H     4.9    4.0    1.4
I    -3.4    3.1   -4.6
P     4.7   -0.0   -4.5
I    -2.1   -5.9    2.0
I    -1.4   -5.9   -2.6
H     1.8    3.1    5.6
H     5.1   -4.0    1.2
P     4.8    0.0    4.6
H     6.0    3.1   -0.6
I     3.0    5.8   -1.9
I     2.2    5.8    2.7
I    -1.6   -0.5    6.6
I     2.2    0.3   -6.5
H     6.1   -3.2   -0.9
I     6.7   -0.5    2.0
H     0.2   -4.4    5.4
I     4.4   -3.2   -4.4
I    -4.4   -3.2   -4.4
I     4.2   -3.2    4.7
I    -6.6    0.5    2.7
H     0.3    4.0    6.0
H     0.9   -4.2   -5.8
I    -4.6   -3.2    4.7
I    -1.4    6.7   -2.6
I    -2.1    6.8    2.0
I    -2.2   -0.5   -7.1
I     2.2   -6.8    2.7
I     3.0   -6.8   -1.9
I     5.4    3.1   -4.6
I     5.5    3.1    4.5
I     2.9    0.3    7.2
I     7.4   -0.4   -2.6
I    -7.7   -3.2    0.2
P    -8.4   -0.0    0.1
I    -5.8    5.8   -1.9
H    -7.1    3.2   -3.5
P    -4.0    6.3   -4.5
P    -3.9    6.2    4.6
P    -4.0   -6.4   -4.5
P    -3.9   -6.4    4.6
H     0.9    7.9    3.9
H    -3.9    2.4   -7.6
I    -1.4   -5.9    6.6
H    -2.6   -3.1    8.1
I     2.4    5.9   -6.5
P     4.8    6.3   -4.5
I     8.6    3.1   -0.1
H    -8.2   -2.4    3.2
I     6.7   -5.9    2.0
P     0.3   -0.0   -9.1
P     0.3   -0.0    9.1
H    -7.4   -3.4   -4.3
I    -5.8   -6.8   -1.9
P     4.8   -6.4   -4.5
P     4.9    6.2    4.6
H    -8.1    2.3    3.6
I    -6.6    5.8    2.7
P     9.2   -0.0    0.1
I    -6.6    0.3   -6.5
H     7.9   -3.1    3.7
P     4.9   -6.4    4.6
H     0.1   -8.8   -3.1
H     3.5    3.3   -8.1
I    -5.9    0.3    7.2
H     8.1   -2.4   -4.1
H     5.0    2.4   -7.6
H    -7.1   -3.7    4.9
H     0.7   -8.7    3.6
H    -3.8   -1.9   -8.4
H    -3.7    8.6    1.2
I    -2.1   -6.0   -7.1
I    -0.3   -9.5   -0.1
H    -7.1    3.1    5.6
I    -1.4    6.7    6.6
I     1.1    9.4    0.2
H     8.1    3.1    4.0
H     4.3   -1.6    8.4
H    -4.2   -3.9    7.7
H    -0.8    8.6   -4.1
H    -3.9   -8.6    1.4
I     1.0   -3.2   -9.0
H    -4.2    8.5   -1.2
H     0.8   -8.4   -4.7
I    -9.1    3.1   -0.1
H     8.7    1.6   -3.8
I    -0.2    3.1    9.1
C    -8.1    3.5   -3.9
I    -0.2    3.1   -9.1
H     7.9    2.6   -4.9
H    -4.6   -1.6    8.4
I     2.4   -6.8   -6.5
H    -4.3   -8.7   -1.0
I     6.7   -0.5   -7.1
I     6.7    6.8    2.0
H    -8.2    3.9    3.6
H     4.6    8.5   -1.2
I     3.0    5.8    7.2
H     4.7   -3.9    7.7
H     0.2    8.2    5.4
I     7.4   -5.9   -2.6
N     0.8    8.6    4.6
H     4.6   -8.7   -1.0
I     7.2   -0.5    6.6
C    -3.6   -3.4    8.5
H    -2.7    9.4   -0.9
H     8.0   -4.0   -4.1
H    -9.0    1.6   -3.8
I    -6.6   -6.8    2.7
H     7.6   -3.2   -5.5
H     3.5   -2.7   -8.9
I     1.0   -3.2    9.3
C     4.4    2.9   -8.4
C    -4.4    2.9   -8.4
H    -2.8   -9.5   -0.6
C     0.7   -9.1   -3.9
H    -8.2    1.9   -5.3
N    -8.5    3.1    4.1
I    -2.1    6.7   -7.1
H     5.0   -1.9   -8.4
H    -7.8   -2.4   -5.8
H    -7.9   -4.7    3.9
N     8.2   -3.2   -4.7
H    -8.7    3.9   -3.1
H    -2.7    3.6    8.9
H     5.0   -8.6    1.4
C    -8.8   -2.8    4.0
H     5.1    8.6    1.2
C    -8.0   -3.3   -5.2
N    -8.1   -4.0    4.6
H    -3.4    4.7   -8.3
N    -8.8    2.3   -4.5
C     8.9   -2.8    4.0
H     3.5   -9.5    0.9
H     3.7    9.4    0.8
C    -3.8    9.4   -0.8
H    -8.0    4.3   -4.7
H    -5.4    3.3   -8.1
N     8.9    2.3   -4.5
H     0.9    8.4   -5.8
H     9.0    3.9   -3.1
H     4.2    2.1    9.1
H     1.7   -9.4   -3.5
H    -0.9    9.5    3.7
H     8.8   -2.1    4.8
N    -3.9   -9.5   -0.5
H     9.5   -2.4    3.2
H    -8.9   -2.1    4.8
C    -8.1    3.1    5.5
I     7.4    6.7   -2.6
H     1.5    9.3   -4.3
H     1.7    8.9    4.9
N    -4.1    9.4    0.7
I     3.0   -6.8    7.2
N    -4.4   -2.3    9.1
H     4.2    2.1   -9.2
H    -0.8   -9.5    4.0
N     0.3   -9.5    4.1
H    -2.7    3.6   -9.3
N     4.5   -2.3    9.1
H    -4.6    2.1    9.1
H     3.5   -2.7    9.4
H     9.5    2.3    3.6
I     9.9   -3.2    0.2
N    -4.4   -2.3   -9.2
N     9.1    3.1    4.1
H    -4.2    4.5    8.5
C    -4.3   -9.5    0.9
N     4.5   -2.3   -9.2
N    -3.6    4.0   -9.0
H    -4.6    2.1   -9.2
H    -3.4   -4.2   -9.0
P    -8.4    6.3    0.0
P    -8.4   -6.3    0.0
N    -0.6    9.4   -4.7
H     0.3   -8.7    6.0
C     5.2   -3.4    8.5
N     4.7    9.4    0.7
I   -10.2   -0.4   -2.6
C     4.5   -9.5    0.9
C     0.1    9.8    4.0
H    -8.6    2.2    6.0
H    -7.9   -4.2   -5.8
H    -5.3   -2.7   -8.9
H     6.2   -3.1    8.1
H    -9.6   -2.4   -4.1
H     4.7    4.5    8.5
C     0.8    9.3   -5.2
C     5.0    9.4   -0.8
H    -3.4   -4.2    9.3
H     0.6   10.2    3.2
N     5.0   -9.5   -0.5
N    -3.6    4.0    9.3
H    -3.8   -1.9    9.9
H    -5.2    9.4    0.8
H    -9.6    3.1    4.0
I    -6.4    5.9   -6.5
H     4.3   -1.6   -9.9
H    -9.8   -3.1    3.7
H     9.5    3.9    3.6
C     9.6    3.5   -3.9
H    -2.6   -3.1  -10.1
H     5.4    4.7   -8.3
I    -5.8    5.8    7.2
H    -5.4   -9.5    0.9
C    -3.6   -3.4   -9.8
H     9.4    1.9   -5.3
H    -1.2    9.4   -5.5
H     0.7  -10.4    3.6
N    -9.4   -3.2   -4.7
H    -3.7   10.3    1.1
P     0.5    6.3   -9.0
I    -3.3   -9.5    4.5
H    -4.6   -1.6   -9.9
P     0.5   -6.4   -9.0
C     0.7   -9.6    5.5
H    -8.6   -4.4    5.4
H    -0.7   10.3   -4.1
H     9.1    2.2    6.0
N     5.2    4.0   -9.0
I    -3.4   -9.5   -4.6
H    -5.3   -2.7    9.4
C     4.4    2.9    9.9
H    -8.6    4.0    6.0
H    -0.9  -10.0   -4.9
C    -4.4    2.9    9.9
P     0.5    6.3    9.2
P     9.2    6.3    0.0
H    -9.7    2.6   -4.9
P     9.2   -6.3    0.0
I   -11.0   -0.5    2.0
H     5.0   -1.9    9.9
H     1.8   -9.6    5.6
H    -3.9  -10.4    1.4
H    -4.2   10.3   -1.2
P     0.5   -6.4    9.2
H    -4.3  -10.3   -1.0
H    -9.7   -4.0   -4.1
N     0.0  -10.3   -4.5
H     6.0   -9.5   -0.6
H     6.1    9.4   -0.9
H     3.4    3.3   10.2
I     4.4    9.4   -4.4
H     5.4   -4.2   -9.0
I    -4.4    9.4   -4.4
I     4.2    9.4    4.7
H     4.6  -10.3   -1.0
H     4.6   10.3   -1.2
N     5.2    4.0    9.3
N     9.6   -4.0    4.6
I    -6.4   -6.8   -6.5
I    11.1    0.5    2.7
I    -2.2   -0.5   11.2
C     9.5    3.1    5.5
H     9.0   -4.4    5.4
I     2.9    0.3  -11.0
C     9.6   -3.3   -5.2
H     6.1    3.6    8.9
I     6.8   -6.0   -7.1
I    -5.8   -6.8    7.2
I    -4.6    9.4    4.7
H     9.7   -4.7    3.9
H    -4.2    4.5   -9.8
H     5.4   -4.2    9.3
H     5.1   10.3    1.1
H     9.7    4.3   -4.7
H    10.5    3.2   -3.5
H    -3.4    4.7   10.0
I     7.4   -5.9    6.6
H     9.1    4.0    6.0
H    -3.9    2.4   10.7
H     4.9  -10.4    1.4
H    -0.0   10.6    4.8
C     5.2   -3.4   -9.8
H    10.3   -3.4   -4.3
H    -0.1  -11.0   -3.8
H     9.9   -2.4   -5.8
H     4.7    4.5   -9.8
H     6.1    3.6   -9.3
I    -1.6   -0.5  -11.6
H     1.0   10.2   -5.8
H    -7.9    7.9    3.9
I     6.8    6.7   -7.1
I     5.5   -9.5    4.5
I     5.4   -9.5   -4.6
H   -10.1   -3.2   -5.5
H    -3.4   -7.9   -8.3
I    11.8    0.5   -1.9
I     7.4    6.7    6.6
H     0.6  -10.7   -5.3
I     2.2    0.3   11.8
H    -5.4    3.3   10.2
H   -11.6   -3.2   -0.9
H     5.0    2.4   10.7
H    -4.2   -3.9  -10.6
H     0.3  -10.5    6.0
H     9.7   -4.2   -5.8
H   -11.7    3.1   -0.6
I   -10.3   -5.9   -2.6
I    -7.7    9.4    0.2
H     4.7   -3.9  -10.6
H    10.5   -3.7    4.9
H     6.2   -3.1  -10.1
H     5.4    4.7   10.0
I    -7.8   -3.2   -9.0
H    -7.1   -9.4   -3.5
H    -4.2    8.8    7.7
I   -10.4   -0.5    6.6
H    10.6    3.1    5.6
H    -7.1    8.9    4.9
H     8.0    8.6   -4.1
H    -8.1   -8.7    3.6
H    -8.0   -8.4   -4.7
P    -8.5   -0.0   -9.1
I    -2.2   12.1    2.0
H     0.3    2.2  -12.3
P    -8.5   -0.0    9.1
H    -4.2   -8.2    8.5
H     4.7    8.8    7.7
I    -5.9    0.3  -11.0
I   -10.3    6.7   -2.6
I    -1.4   12.2   -2.6
I    -7.8   -3.2    9.3
P     0.4   12.6    0.1
H    -7.4    9.3   -4.3
I   -11.0   -5.9    2.0
I     2.2  -12.2    2.7
H     5.4   -7.9   -8.3
I     3.0  -12.2   -1.9
N    -8.1    8.6    4.6
P     0.4  -12.7    0.1
H     4.7   -8.2    8.5
