         400
 sphere cut out from bulk 
I    -0.3    0.2   -2.0
P    -0.3   -2.1    0.3
I     2.2   -0.2    1.4
I    -2.7   -0.1    1.4
P     2.2    2.1   -1.0
P    -2.8    2.1   -1.0
I    -0.3    3.7    0.3
I     2.3   -3.6   -1.1
H     2.1   -0.4    3.9
H    -0.3    0.3   -4.5
I    -2.8   -3.6   -1.1
I    -0.2   -3.8    2.9
H    -1.8   -0.8    4.4
I     4.7    0.2   -2.0
P     4.7   -2.0    0.3
H     1.5    3.8    3.2
H     1.3    0.3    5.2
N     2.2   -0.3    4.9
H    -0.3   -4.8   -2.7
N    -0.3    0.2   -5.5
I     2.1    3.6   -3.7
P    -5.2   -2.0    0.3
H    -1.8    4.9    1.9
I    -5.2    0.2   -2.0
H    -3.0    3.4    3.3
H     0.5   -4.1   -4.1
H     1.2   -2.2    5.2
H     0.5   -0.4   -5.8
H    -1.2   -4.1   -4.0
I    -2.8    3.5   -3.8
H    -1.2   -0.4   -5.8
C    -2.1   -1.2    5.4
C    -0.3   -4.6   -3.7
I     4.6    3.7    0.4
I    -0.2    2.1    5.6
H     3.0    0.3    5.2
H     3.8   -3.6   -3.2
C     2.1   -1.7    5.5
H    -1.8   -2.3    5.5
C     2.1    4.5    3.7
H     2.9    5.2    1.8
H    -1.8    4.3    4.3
H     3.6    0.9   -5.1
C    -2.7    4.3    3.7
H     0.6    2.0   -6.0
H     1.6   -5.7    2.5
H    -4.0   -1.9    4.7
N    -2.5    5.3    2.6
H     3.0   -2.2    5.2
H    -1.2    2.0   -6.0
C    -0.3    1.5   -6.3
H     3.1    4.1    4.0
H    -1.8   -0.6    6.2
I    -5.3    3.7    0.4
H    -4.0   -0.3    5.3
N    -3.6   -1.3    5.4
H    -2.2   -5.6    2.9
I     4.8   -3.6    3.1
N     2.4    5.6    2.7
H    -3.4    5.4    2.1
H     0.5    5.3   -4.2
H     1.6    6.1    2.5
H    -1.2    5.3   -4.2
I     2.1   -2.2   -6.2
H    -4.1    1.8   -5.3
H     1.7    5.0    4.6
H    -4.6   -3.3   -4.0
I    -5.2   -3.6    3.1
H     3.1   -5.5    3.1
N     4.4   -3.8   -4.0
H     3.8   -3.5   -4.8
H     2.1   -1.5    6.6
I    -3.0   -2.0   -6.2
N     2.4   -6.2    2.7
H    -2.2    6.2    2.9
H    -4.1    0.3   -5.9
I     7.2   -0.1    1.4
C     4.0    1.3   -6.0
H    -3.5    4.7    4.4
H     5.3   -3.3   -4.0
H    -1.8   -6.9    1.9
N    -0.4    5.9   -4.5
H     2.9   -6.6    1.8
N    -0.4   -5.9   -4.5
H    -0.3    1.2   -7.3
N    -2.5   -6.5    2.6
P     7.1    2.1   -1.0
H    -0.3    7.0   -2.7
H     3.6    2.3   -6.2
H    -3.4   -6.4    2.1
I     4.7    1.9    5.6
N    -4.5    1.2   -6.0
H    -4.0   -1.6    6.3
H     3.1    6.3    3.1
H    -6.1   -3.6   -3.2
H     5.9   -1.9    4.7
H     0.5   -6.5   -4.2
H     3.6    0.6   -6.9
N    -5.5   -3.8   -4.0
H    -1.2   -6.5   -4.2
I    -7.7   -0.2    1.4
I    -5.2    1.9    5.6
H     5.9   -0.3    5.3
H    -4.7   -5.6   -3.2
H    -0.4   -5.8   -5.5
I     7.1   -3.6   -1.1
H     5.8    1.8   -5.3
P    -7.7    2.1   -1.0
H     3.7   -5.8   -4.2
C    -0.4    7.2   -3.7
I    -0.3   -8.1    0.3
H    -0.4    6.0   -5.5
H    -6.3    0.9   -5.1
C     4.7   -5.3   -4.1
H    -4.1    1.6   -6.9
N     5.4    1.2   -6.0
H     3.7    6.0   -4.2
H     5.8    0.3   -5.9
H     5.2   -5.6   -3.2
H     6.9    3.4    3.3
H     1.7   -6.8    4.6
N     6.3   -1.3    5.4
C     2.2   -7.3    3.7
H    -4.7    6.2   -3.2
I    -7.6   -3.6   -1.1
C    -5.2   -5.3   -4.1
I    -0.2    8.0    2.9
H    -6.1   -3.5   -4.8
C    -6.0    1.3   -6.0
I     2.3    8.2   -1.1
H    -6.9    0.3    5.2
H    -7.8   -0.4    3.9
H     6.5    5.4    2.1
H     5.2    6.2   -3.2
H    -4.6   -5.4   -5.0
I    -0.2   -2.6    8.4
I    -2.8    8.2   -1.1
I     7.1    3.5   -3.8
H     0.5    7.7   -4.1
H     1.5   -8.0    3.2
C    -2.7   -7.5    3.7
H    -1.3    7.7   -4.0
H     5.9   -1.6    6.3
H    -1.8   -7.6    4.3
H    -6.8    4.1    4.0
H    -6.9   -2.2    5.2
H    -7.0    5.2    1.8
C     4.7    6.5   -4.1
H    -3.5   -7.1    4.4
P    -0.2    3.5    8.4
H     5.3   -5.4   -5.0
H     6.4    4.7    4.4
H    -6.3    2.3   -6.2
C     7.2    4.3    3.7
N    -7.8   -0.3    4.9
H     5.8    1.6   -6.9
H     3.1   -7.7    4.0
I     2.1   -8.2   -3.7
H     8.1   -0.8    4.4
H    -6.8   -5.5    3.1
I     4.6   -8.1    0.4
H     6.5   -6.4    2.1
H    -4.6    6.4   -5.0
I    -7.8    3.6   -3.7
C    -5.3    6.5   -4.1
H    -6.3    0.6   -6.9
I     2.3    5.5    7.3
N     7.4    5.3    2.6
H    -6.2   -5.8   -4.2
I     6.9   -2.0   -6.2
I    -2.7    5.5    7.3
I     2.0    2.6   -9.0
C     7.8   -1.2    5.4
I    -2.8   -8.3   -3.8
H    -3.0   -8.4    3.3
H     3.8    8.2   -3.2
H    -6.2    6.0   -4.2
I    -0.5   -5.5   -7.9
I    -5.3   -8.1    0.4
H     8.1    4.9    1.9
H     5.3    6.4   -5.0
C    -7.8   -1.7    5.5
C    -7.8    4.5    3.7
N    -7.5    5.6    2.7
P    -0.3    9.7    0.3
I    -2.9    2.6   -8.9
H    -8.4    3.8    3.2
H    -6.8    6.3    3.1
H    -7.0   -6.6    1.8
I     9.6    0.2   -2.0
P     9.6   -2.1    0.3
P     2.1   -3.5   -9.0
I     2.3   -6.3    7.3
P     2.2   -9.7   -1.0
N     4.4    8.0   -4.0
H     7.7   -5.6    2.9
I     4.8   -2.5    8.4
I     4.7    8.2    3.1
H    -8.6    0.3    5.2
I    -2.7   -6.3    7.3
P    -2.9   -3.5   -9.0
N    -7.5   -6.2    2.7
H     8.1   -2.3    5.5
H     8.1    4.3    4.3
P    -2.8   -9.7   -1.0
I    -0.5    6.3   -7.9
I    -5.1   -2.5    8.4
I     2.3    2.0    9.7
N     7.4   -6.5    2.6
P     4.7    3.5    8.3
I    -7.8   -2.2   -6.2
I    -5.2    8.2    3.1
H     8.1   -0.6    6.2
I    -2.7    2.0    9.7
I     9.6    3.7    0.3
H     7.7    6.2    2.9
H    -7.8   -1.5    6.6
H     8.7   -4.1   -4.0
H    -8.3   -5.7    2.5
H    -8.7   -2.2    5.2
H     3.8    8.3   -4.8
I   -10.2    0.2   -2.0
P    -5.2    3.5    8.3
P   -10.2   -2.1    0.3
I    -0.4   -2.0  -10.3
H     8.7   -0.4   -5.8
H     6.4   -7.1    4.4
N    -5.5    8.0   -4.0
H    -4.7    8.6   -4.0
H     9.6    0.3   -4.5
I     4.5   -5.5   -7.9
H    -8.3    6.1    2.5
H    -8.2    5.0    4.6
H    -6.1    8.2   -3.2
P     2.3   -4.1    9.7
H     8.7    2.0   -6.0
I     9.7   -3.8    2.9
H     8.1   -6.9    1.9
P    -2.6   -4.1    9.6
H     5.2    8.6   -4.0
P     4.7    9.8    0.3
I   -10.2    3.7    0.3
I     7.1    8.2   -1.1
H    -9.4   -4.1   -4.1
H     1.2    9.6    5.2
C     7.2   -7.5    3.7
H     8.7    5.3   -4.2
I    -5.4   -5.5   -7.9
H     9.6   -4.8   -2.7
H    -6.8   -7.7    4.0
N     9.6    0.2   -5.5
H    -9.4   -0.4   -5.8
P    -5.2    9.8    0.3
I     4.5    6.3   -7.9
P    -0.5    4.1  -10.3
H    -1.8    9.5    5.5
H   -10.2    0.3   -4.5
I   -10.1   -3.8    2.9
I    -0.2   -9.7    5.6
C    -7.7   -7.3    3.7
H    -9.3    2.0   -6.0
C     9.6   -4.6   -3.7
I    -7.6    8.2   -1.1
H     3.0    9.6    5.2
I     9.7    2.1    5.6
H     6.9   -8.4    3.3
H    -6.1    8.3   -4.8
I     4.5   -2.0  -10.3
I    -5.4    6.3   -7.9
H     0.6   -9.8   -6.0
H    -1.2   -9.8   -6.0
C     9.6    1.5   -6.3
I     7.1   -8.3   -3.8
I     7.0    2.6   -8.9
H   -10.2   -4.8   -2.7
H    -9.4    5.3   -4.2
I     7.2    5.5    7.3
N   -10.2    0.2   -5.5
H    -8.2   -6.8    4.6
I     2.1    9.6   -6.2
H     8.7   -6.5   -4.2
H    -4.0    9.9    4.7
C     2.1   10.1    5.5
I   -10.1    2.1    5.6
P    -0.2   -8.3    8.4
I    -5.4   -2.0  -10.3
I    -0.3  -11.6   -2.0
H     1.1    1.0   11.7
H    -1.1    0.1   11.8
C   -10.2   -4.6   -3.7
I    -7.6    5.5    7.3
P     7.0   -3.5   -9.0
H    10.4   -0.4   -5.8
H     8.1   -7.6    4.3
I    -7.8   -8.2   -3.7
H     3.6   -9.5   -6.2
H    10.5   -4.1   -4.1
I     2.2   11.7    1.4
P     4.5    4.1  -10.3
I    -3.0    9.8   -6.2
H    -1.8   11.0    4.4
H    -4.1  -10.0   -5.3
C    -2.1   10.6    5.4
P     7.1   -9.7   -1.0
H    -8.4   -8.0    3.2
N     9.5    5.9   -4.5
I     7.2   -6.3    7.3
I    -2.8   11.7    1.4
C   -10.2    1.5   -6.3
N     9.5   -5.9   -4.5
C    -0.3  -10.4   -6.3
H     9.6    1.2   -7.3
H     9.6    7.0   -2.7
I    -0.3   12.0   -2.0
I    -0.2    5.7   10.7
I    12.1   -0.2    1.4
H    -9.4   -6.5   -4.2
I    -7.9    2.6   -9.0
I     7.2    2.0    9.7
I     2.2  -12.0    1.4
H    10.5    2.0   -6.0
H     2.1   11.4    3.9
H     8.6    7.7   -4.0
I    -7.6   -6.3    7.3
P    12.1    2.1   -1.0
I    -0.2   -6.1   10.7
I     4.7   -9.9    5.6
H     4.9    0.7   11.3
I    -2.7  -12.0    1.4
P    -5.4    4.1  -10.3
H    -0.3  -11.5   -4.5
H    -5.0    0.7   11.3
H     0.7   -1.0  -12.3
H    11.2    0.3    5.2
H    10.4    5.3   -4.2
N    -3.6   10.5    5.4
H     2.1   10.3    6.6
P     2.0    8.3   -9.0
P    -7.7   -9.7   -1.0
H     9.5   -5.8   -5.5
H    11.4    3.8    3.2
H    -3.1   -1.0  -12.0
I    -0.2    9.2    8.4
H     5.9    9.9    4.7
P    -7.8   -3.5   -9.0
H    11.1   -2.2    5.2
H   -11.1   -0.4   -5.8
I    -5.2   -9.9    5.6
I    -7.6    2.0    9.7
H     9.5    6.0   -5.5
C     9.5    7.2   -3.7
H   -11.1   -4.1   -4.0
H   -11.7   -0.8    4.4
P    -2.9    8.3   -9.0
I     9.6   -8.1    0.3
H     3.6  -10.9   -5.1
P     2.3    7.7    9.7
P    -2.6    7.7    9.6
H    -1.1    1.7   12.5
H    -4.0   10.2    6.3
C    -0.7    0.7   12.6
N   -10.3    5.9   -4.5
I     4.7  -11.6   -2.0
H   -10.2    1.2   -7.3
N     0.8    0.7   12.6
N   -10.3   -5.9   -4.5
H    12.1   -0.4    3.9
N     2.1   11.5    4.9
P     4.8   -8.3    8.3
H     5.8  -10.0   -5.3
H   -10.2    7.0   -2.7
H     1.3  -11.5    5.2
I   -12.6   -0.1    1.4
I    12.2   -3.6   -1.1
H     0.5   11.4   -5.8
P     7.3   -4.1    9.6
C     4.0  -10.5   -6.0
H   -11.1    2.0   -6.0
H     1.1   -0.3   12.7
H     2.9   -0.0  -12.4
H    -9.4    7.7   -4.1
H    -1.2   11.4   -5.8
P    -5.1   -8.3    8.3
H   -11.7    4.9    1.9
I     2.0   -5.8  -11.3
I    -5.2  -11.6   -2.0
I     9.7    8.0    2.9
H    -0.3  -10.6   -7.3
N    -0.3  -11.6   -5.5
P    -0.5   -7.7  -10.3
H    -6.9    9.6    5.2
H    -1.8   11.2    6.2
H    -0.3   12.1   -4.5
P   -12.7    2.1   -1.0
I     2.2   -2.6   12.5
H     2.2  -12.2    3.9
H    -6.3   -9.5   -6.2
H    10.4   -6.5   -4.2
N    -4.5  -10.6   -6.0
P    -7.6   -4.1    9.7
