         400
 sphere cut out from bulk 
H     0.8    0.1   -0.1
C     1.6    0.2    0.6
H     1.6   -0.7    1.3
H     1.6    1.1    1.1
I    -2.5    0.5    0.4
N     2.9    0.1   -0.2
H     2.9   -0.8   -0.8
H     2.9    0.9   -0.9
I     0.1   -1.5   -2.9
H     3.7    0.1    0.4
P    -2.4    0.5   -2.8
H    -1.7   -3.5   -0.8
H    -1.1    3.8    0.9
I     0.3    2.3    3.5
I    -0.6   -2.2    3.5
I    -0.5    3.0   -2.9
H    -1.5   -3.7    1.6
P    -2.4    0.4    3.6
I     2.0   -4.0    0.4
H    -3.3   -3.3    0.0
C    -2.5   -4.0   -0.2
N    -1.9   -4.5    1.0
N    -1.9    4.5    1.0
H     2.1    0.5   -4.5
H    -2.9    4.1   -0.8
H    -2.6    4.0    1.7
H    -5.2    0.1    0.4
H    -1.1   -5.1    0.9
I     3.9    2.4   -2.7
P     2.0   -4.1   -2.8
I     2.0    5.0    0.4
I     3.8   -1.3    3.7
C    -2.5    4.9   -0.2
I    -4.4   -2.0   -2.8
I     4.5   -2.0   -2.8
H    -2.9   -4.9   -0.8
H     1.9   -0.2    5.4
H    -1.5    5.3    1.6
H     0.8    0.4   -5.7
H    -1.8    5.4   -0.8
H    -2.6   -4.9    1.7
P     2.2   -4.0    3.5
C     1.8    0.6   -5.6
P     2.0    4.9   -2.8
N    -6.1    0.1   -0.2
H    -6.0   -0.8   -0.8
H    -6.0    0.9   -0.9
I    -5.0    2.4   -2.7
I    -4.1    3.2    3.6
I    -5.1   -1.3    3.7
P     2.1    4.9    3.5
H     0.5   -0.0    6.4
H     2.0    1.7   -5.9
I     6.5    0.5    0.4
H     5.6   -3.3    0.0
H    -2.6   -3.9   -4.6
H    -3.3    5.7    0.0
N     1.5   -0.2    6.4
I    -2.7    0.5   -6.1
I    -0.5   -6.0   -2.9
H     2.5   -1.3   -6.1
I     4.9    3.2    3.6
N     2.6   -0.3   -6.4
H    -2.4   -2.8   -5.9
H     1.7   -1.2    6.7
H    -1.2   -4.1   -5.7
I    -2.1    0.5    6.8
C    -2.2   -3.8   -5.6
P     6.5    0.5   -2.8
H    -2.1    4.3    5.4
H    -2.6    5.0   -4.6
H     6.0    4.1   -0.8
H     3.6   -0.1   -6.3
C    -7.3    0.2    0.6
H     2.1    1.7    6.9
P     6.5    0.4    3.6
H    -2.0   -4.7    5.4
H    -7.3   -0.7    1.3
H    -7.3    1.1    1.1
H    -2.9    3.2   -6.2
I     0.3   -6.7    3.5
H    -1.2    4.9   -5.7
C     6.4   -4.0   -0.2
I     2.3   -4.0   -6.1
I    -0.7    6.7    3.5
C     2.3    0.7    7.3
H     6.3    4.0    1.7
H    -1.9    3.2    6.7
H     2.3   -0.2   -7.4
H     6.0   -4.9   -0.8
H    -2.4   -2.8    6.9
I    -4.0   -5.7    3.6
N    -1.8    4.2    6.4
C    -2.3    5.1   -5.6
H    -0.8    4.5    6.5
H    -0.7   -4.5    6.5
H     5.6    5.7    0.0
H     3.4    0.4    7.2
I    -6.9   -4.0    0.4
I     0.0    7.4   -2.9
I     1.9   -3.9    6.8
H     7.2   -3.5   -0.8
C     6.4    4.9   -0.2
H     1.6   -7.8    1.1
I     4.0   -6.6   -2.7
H    -8.2    0.1   -0.1
I     2.3    5.0   -6.1
N    -1.7   -4.7    6.4
H    -6.8    0.5   -4.5
H     6.4   -4.9    1.7
H    -5.3   -0.1   -6.3
N    -3.0    4.2   -6.5
I     4.9   -5.7    3.6
N     7.0    4.5    1.0
N     7.1   -4.5    1.0
H     7.4   -3.7    1.6
P    -6.9   -4.1   -2.8
H     1.6    8.3    1.3
H     1.9    0.6    8.3
N    -3.0   -4.8   -6.5
I    -6.9    5.0    0.4
C    -2.5   -3.8    7.3
P    -6.7   -4.0    3.5
I     1.8    5.0    6.8
H     3.0   -8.1   -0.9
I    -4.4    6.9   -2.8
I    -5.0   -6.6   -2.7
H     2.9    8.2   -0.8
I     4.5    6.9   -2.8
H     7.8    3.8    0.9
I     6.2    0.5   -6.1
H     6.4   -3.9   -4.6
H    -4.0    4.4   -6.4
I    -2.4   -8.5    0.4
H    -4.0   -4.5   -6.4
H    -7.1   -0.2    5.4
H    -2.9   -5.7   -6.2
H     0.8   -8.9   -0.1
H    -2.4    6.2   -5.9
P    -6.9    4.9   -2.8
H    -6.4   -1.3   -6.1
C     1.7   -8.8    0.6
H    -3.6   -4.1    7.2
N    -6.3   -0.3   -6.4
H    -2.7    4.3   -7.4
H    -1.9   -5.7    6.7
H     7.2    5.4   -0.8
C    -7.1    0.6   -5.6
H     0.7    9.1   -0.1
P    -6.8    4.9    3.5
H    -5.6    0.4    7.2
H    -2.6   -4.7   -7.4
H     6.0    3.2   -6.2
H     4.9    4.4   -6.4
H     7.4    5.3    1.6
C     1.6    9.1    0.6
P    -2.3   -8.5   -2.8
H     6.3    5.0   -4.6
H     6.5   -2.8   -5.9
C    -2.6    5.2    7.3
H    -6.9    1.7   -5.9
H     4.9   -4.5   -6.4
I     8.3   -2.2    3.5
I     0.3   -1.3   -9.2
I     3.8    7.7    3.7
N     2.9   -8.9   -0.2
I     8.4    3.0   -2.9
H     7.8   -5.1    0.9
H    -3.6    4.9    7.2
I    -8.8   -1.5   -2.9
H    -2.2   -3.9    8.3
N     2.8    9.0   -0.2
C     6.7   -3.8   -5.6
P    -2.4   -8.5    3.6
H    -2.4    6.2    6.9
I     9.0   -1.5   -2.9
H     3.8   -8.8    0.4
P    -2.4    0.4   -9.3
I    -8.7    2.3    3.5
I     6.8    0.5    6.8
H     2.0   -7.3   -5.9
H     9.7    0.1   -0.1
N     5.9    4.2   -6.5
H     6.9    4.3    5.4
I    -0.8    3.2   -9.2
N    -7.4   -0.2    6.4
I    -2.5    9.4    0.4
H     5.3   -4.1    7.2
H     2.2   -8.4   -4.5
H     3.7    9.1    0.4
I    -6.6   -4.0   -6.1
H    -6.8    1.7    6.9
C    -6.6    0.7    7.3
H     1.6   -9.6    1.3
H     6.5   -2.8    6.9
H    -6.6   -0.2   -7.4
H    -7.3   -1.2    6.7
H     6.9   -4.7    5.4
H    -8.2    0.4   -5.7
I    -5.2    7.7    3.7
N     5.9   -4.8   -6.5
H    -2.3    5.1    8.3
H    -5.9   -8.1   -0.9
I     9.2    2.3    3.5
C     6.7    5.1   -5.6
H     2.5    7.7   -6.1
P    -2.4    9.4   -2.8
H     5.3    4.9    7.2
C     1.9   -8.3   -5.6
H    -6.1    8.2   -0.8
H     3.0   -9.7   -0.8
H     2.2   -7.2    6.9
H    -5.2   -8.8    0.4
H     1.6   10.1    1.1
H     7.0    3.2    6.7
H     2.9    9.8   -0.9
I     3.8    2.2   -9.3
I    -6.7    5.0   -6.1
P    -2.4    0.5   10.0
I    -0.4   -2.1   10.1
P    -2.5    9.4    3.6
I    -9.4    3.0   -2.9
P     2.0   -4.1   -9.3
H     0.8   -8.6   -5.7
H     1.6    7.7    6.7
C     6.4   -3.8    7.3
H     6.1   -5.7   -6.2
I     0.1    2.5   10.1
I    -9.5   -2.2    3.5
H     7.8   -4.1   -5.7
H     1.8    8.8    5.4
I    -4.2   -2.2   -9.3
H    -5.3    9.1    0.4
N     7.1    4.2    6.4
I    -7.0   -3.9    6.8
C    10.5    0.2    0.6
H    -8.4   -0.0    6.4
H     6.2    4.3   -7.4
H    10.5   -0.7    1.3
P     1.9    4.8   -9.3
H    10.5    1.1    1.1
I     4.7   -2.2   -9.3
I     6.5   -8.5    0.4
N    -6.0   -8.9   -0.2
I    -2.6   -8.4   -6.1
H     2.1    9.5   -4.5
H     7.7    4.9   -5.7
N     7.2   -4.7    6.4
I     8.4   -6.0   -2.9
H     6.5    6.2   -5.9
H    -7.3   -7.8    1.1
H     1.9   -9.1    5.4
I     4.0   -1.4    9.9
H   -10.1    3.8    0.9
H     6.3   -4.7   -7.4
H    -7.0    0.6    8.3
I     0.1  -10.5   -2.9
I    -0.7   -5.8   -9.2
I    -5.2    2.2   -9.3
N    -6.1    9.0   -0.2
N     1.5    8.7    6.4
C     6.3    5.2    7.3
H     0.7    9.3   -5.7
P     2.2   -4.0   10.0
I    -2.1   -8.4    6.8
H     0.5    8.9    6.4
I    -7.1    5.0    6.8
H     0.6   -9.0    6.4
N     2.6    8.7   -6.4
P     6.6   -8.5   -2.8
H   -10.4   -3.7    1.6
I    -4.9   -1.4    9.9
H    -7.4    8.3    1.3
I    -4.3    3.0    9.9
I     8.3    6.7    3.5
H   -10.6   -3.5   -0.8
C     2.3   -8.2    7.3
H     9.7    0.4   -5.7
C     1.8    9.6   -5.6
H   -10.0   -5.1    0.9
N     1.6   -9.2    6.4
H     7.1   -5.7    6.7
H     6.5    6.2    6.9
H     1.8   -0.5  -11.2
I     4.6    3.0    9.9
H     6.7   -3.9    8.3
H     8.2    4.5    6.5
P     6.5   -8.5    3.6
P     2.1    5.0   10.0
P     6.6    0.4   -9.3
H     8.2   -4.5    6.5
I   -11.4    0.5    0.4
H     9.4   -0.0    6.4
I     6.4    9.4    0.4
C    -7.3   -8.8    0.6
I    -8.6   -6.7    3.5
H    -6.0   -9.7   -0.8
H     3.6    8.9   -6.3
I     3.8  -10.2    3.7
I    -9.4   -6.0   -2.9
H    -6.0    9.8   -0.9
N     2.7   -9.2   -6.4
I    -2.7    9.5   -6.1
H     3.7   -9.0   -6.3
H     2.9    0.8  -11.3
I    10.9   -4.0    0.4
H     3.4   -8.5    7.2
H    -6.9   -7.3   -5.9
H     2.3    8.7   -7.4
P   -11.3    0.5   -2.8
H    -6.8   -8.4   -4.5
N   -10.8   -4.5    1.0
C    -7.4    9.1    0.6
I    -0.6  -11.2    3.5
H    -6.5    7.7   -6.1
P     6.5    9.4   -2.8
N   -10.8    4.5    1.0
H     6.6    5.1    8.3
N    11.8    0.1   -0.2
I     0.2   11.2    3.5
H   -10.4    5.3    1.6
I    -2.2    9.5    6.8
H    11.8   -0.8   -0.8
P   -11.3    0.4    3.6
I     9.2   -6.7    3.5
H    11.9    0.9   -0.9
P     6.5    9.4    3.6
H     2.0   -8.4    8.3
I    -8.9    7.4   -2.9
H    11.0    0.5   -4.5
I    -5.1  -10.2    3.7
P     6.5    0.5   10.0
I     0.2   -6.5   10.1
I     0.3    7.7   -9.2
I    10.9    5.0    0.4
H    -8.1   -8.9   -0.1
H   -10.7    5.4   -0.8
P    11.0   -4.1   -2.8
I     9.0    7.4   -2.9
H     2.4   -9.2   -7.4
H    -6.7   -7.2    6.9
N     2.5   -0.0  -11.8
H    10.8   -0.2    5.4
C   -11.4   -4.0   -0.2
C    10.7    0.6   -5.6
I     3.8   -6.8   -9.3
I    -4.4  -11.0   -2.8
H    -7.3   -9.6    1.3
H    -5.3    8.9   -6.3
I     6.3   -8.4   -6.1
H     2.5  -10.2   -6.1
H    -5.2   -9.0   -6.3
H     1.6   -0.4   12.1
I     4.6  -11.0   -2.8
I    -9.6    6.7    3.5
H    -8.2    9.1   -0.1
I    -0.5    6.9   10.1
H   -10.1   -4.1   -5.7
N    10.5   -0.2    6.4
C    -7.1   -8.3   -5.6
I    -4.3    6.7   -9.3
P    -6.9   -4.1   -9.3
I     3.9   11.3   -2.7
P    10.9    4.9   -2.8
H     1.7  -10.2    6.7
C     2.3    9.7    7.3
H     3.3    9.4    7.2
I    -0.6   11.9   -2.9
I    -4.3   -5.9    9.9
H     1.9   10.6   -5.9
H   -11.5    4.0    1.7
P    11.1   -4.0    3.5
H     2.8    1.0   12.0
I     4.6    6.7   -9.3
H     3.3   -0.7  -12.0
H    -5.5   -8.5    7.2
I     4.7   -5.9    9.9
H    -9.6   -4.5    6.5
C   -11.4    4.9   -0.2
H    -9.7    4.5    6.5
N    -6.3    8.7   -6.4
H    -3.0    3.7  -11.6
H    -7.1    8.8    5.4
H    -7.4   10.1    1.1
H    10.9    1.7   -5.9
H    -2.9   -3.4  -11.7
H    -1.4   -3.6   11.9
H   -11.8    4.1   -0.8
H    -6.8    9.5   -4.5
P    -7.0    4.8   -9.3
H    -7.3    7.7    6.7
H   -10.1    4.9   -5.7
H    10.6   -1.2    6.7
I    -5.1   -6.8   -9.3
H   -11.5   -4.9    1.7
H    -1.7  -12.5   -0.8
P    11.1    4.9    3.5
H    12.6    0.1    0.4
H   -12.2   -3.3    0.0
I    -8.6   -1.3   -9.2
