         400
 sphere cut out from bulk 
H     0.7   -1.6    0.8
I    -0.1   -1.0   -1.7
H     0.9    1.2   -2.4
N     1.3   -2.1    1.4
I    -0.9    2.6    0.8
P    -2.8    0.4   -0.7
H     1.6   -0.5    2.8
H     2.9   -0.7    1.5
C     2.2   -1.2    2.2
H     0.7   -2.6    2.1
H     1.8   -2.8    0.9
H     2.1    2.2   -1.7
N     1.4    2.1   -2.5
I    -2.8   -1.3    2.0
H     0.7    2.8   -2.4
I     3.6    2.0    0.4
H     2.8   -1.8    2.9
H    -2.2    2.4    3.0
I    -2.7    2.4   -3.2
P     1.7    4.1    2.0
C     2.1    2.1   -3.8
P     1.7   -3.2   -3.3
H    -2.9   -4.0    0.1
H     2.8    1.3   -3.9
I     4.3   -1.6   -2.2
H     1.4    2.0   -4.6
H    -3.5    1.5    3.6
N    -2.9    2.3    3.8
I     1.7    2.2    4.6
H    -1.6   -5.1   -0.5
I     1.9   -5.0   -0.6
I    -4.6   -1.6   -2.2
H    -1.7   -0.2   -5.3
H    -1.6    1.5    5.2
H     2.6    3.1   -3.9
H    -3.1   -1.2   -4.6
C    -2.6   -5.0   -0.2
I    -5.4    2.0    0.4
I    -0.2   -4.7    3.4
H    -3.2    4.6   -1.8
H    -1.6   -2.0   -5.3
C    -2.3   -1.2   -5.4
H    -3.5    3.2    3.7
H    -2.9    5.3    0.6
C    -2.2    2.4    5.1
H    -1.5    5.9   -0.5
H    -3.1   -4.7   -2.2
P     6.1    0.4   -0.7
P    -2.7   -3.2    4.6
I     1.6   -1.3   -5.9
H    -6.1   -0.7    1.5
I     1.9    6.0   -0.6
H    -1.7    3.3    5.2
I    -1.0   -4.7   -4.2
H    -2.9   -5.7    0.6
I    -0.9   -1.2    6.3
C    -2.6    5.9   -0.2
N    -3.4   -5.4   -1.5
I     6.2   -1.3    2.0
N    -3.4    5.6   -1.5
H     5.5    1.5    3.6
I     3.6   -1.8    5.7
H    -4.4   -5.3   -1.3
H    -3.0    2.3    5.9
H    -6.1   -1.8    2.9
H     4.5   -5.3   -1.3
I    -0.1    6.3    3.4
C    -6.7   -1.2    2.2
H     6.1   -4.0    0.1
H     5.4    3.2    3.7
H    -3.2   -6.3   -1.8
H    -4.4    5.7   -1.3
H    -3.1    6.2   -2.2
H    -6.1    1.3   -3.9
P     1.8    0.3    7.1
P     1.7   -6.9    2.0
I     6.2    2.4   -3.2
H    -6.9    2.2   -1.7
H     4.6    5.7   -1.3
N    -3.0   -1.2   -6.7
N     6.0    2.3    3.8
H    -2.8    7.0    0.1
H     5.9   -1.2   -4.6
I    -0.2    2.8   -7.1
H     5.8    4.6   -1.8
I    -0.9    6.3   -4.2
I     4.4   -5.5    3.2
I     4.4    5.5    3.2
H    -3.6   -0.3   -6.8
P    -2.8    4.2   -5.9
H    -7.2   -2.8    0.9
H     6.7    2.4    3.0
I    -4.6    5.5    3.2
H     5.8   -4.7   -2.2
I    -4.6   -5.5    3.2
H    -7.3   -0.5    2.8
N     5.5   -5.4   -1.5
H    -2.3   -1.1   -7.5
H    -3.5   -2.0   -6.8
I     3.6   -5.3   -4.8
I    -5.3   -1.8    5.7
N     5.6    5.6   -1.5
H     6.1    5.3    0.6
C     6.3   -5.0   -0.2
H    -6.3    3.1   -3.9
N    -7.7   -2.1    1.4
C    -6.8    2.1   -3.8
H     1.4   -5.5    5.9
H     1.4    5.5    5.9
N    -7.5    2.1   -2.5
I     3.6    5.7   -4.8
H     2.6   -4.4    6.6
H     6.0   -5.7    0.6
P     6.2   -3.2    4.6
H     1.8    8.2    0.9
I    -0.9   -8.3    0.8
H    -8.3   -1.6    0.8
H    -8.0    1.2   -2.4
I     8.1    2.6    0.8
H     0.7   -8.1   -2.4
P    -7.2    4.1    2.0
P    -7.3   -3.2   -3.3
H     0.7    8.3    2.1
I    -7.0   -5.0   -0.6
C     6.7   -1.2   -5.4
P     1.7    7.8   -3.3
P     1.7    0.5   -8.5
H     6.0    2.3    5.9
H     5.4   -0.3   -6.8
H     2.9    4.8    6.6
C     6.4    5.9   -0.2
I     4.3    2.0   -7.3
H     5.7   -6.3   -1.8
C     6.7    2.4    5.1
C     2.1   -5.3    6.7
H     5.8    6.2   -2.2
H     1.6   -4.0   -7.7
I    -4.6    2.0   -7.3
I    -7.3    2.2    4.6
H    -3.1   -1.2    8.3
I    -5.4   -5.3   -4.8
H    -8.3   -2.6    2.1
H     5.4   -2.0   -6.8
H     7.2   -0.2   -5.3
H     7.4   -5.1   -0.5
C     2.2    5.6    6.7
I     8.8   -1.0   -1.7
H    -8.2    2.8   -2.4
N     6.0   -1.2   -6.7
N     1.3    8.9    1.4
H    -7.6    2.0   -4.6
H     7.4    1.5    5.2
I    -5.4    5.7   -4.8
I    -0.1    2.5    8.8
H     2.1   -8.8   -1.7
H     2.6   -7.9   -3.9
I    -7.0    6.0   -0.6
H     6.1    7.0    0.1
I    -2.7   -5.1    7.3
H     7.3   -2.0   -5.3
I    -9.1   -1.0   -1.7
H    -3.6   -7.8    3.7
H     0.7   -4.6    8.0
N     1.4   -8.9   -2.5
H    -2.2   -8.6    3.0
P    -2.7    7.7    4.6
P    -2.8   -6.8   -5.9
H    -1.7   -7.7    5.2
H     1.0    4.7    8.1
H     0.7    9.4    0.8
H     7.4    5.9   -0.5
H     2.9   -6.1    6.6
I    -7.4   -1.3   -5.9
P     6.2    4.2   -5.9
H     7.3    3.3    5.2
I     4.4    1.9    8.3
I    -2.8   -8.6   -3.2
I     3.5   -9.0    0.4
I    -4.6    1.9    8.3
H     2.7    6.6    6.6
H    -3.1   -2.8    8.7
H     0.6    4.8   -8.4
H     2.8   -5.3   -7.6
N     1.4   -5.3    8.0
I    -1.0   -0.9   -9.6
I    -2.7    5.9    7.3
C     2.2   -4.7   -8.3
H     9.7   -1.6    0.8
N    -3.3   -1.8    9.0
N    -2.9   -8.6    3.8
N     1.5    5.6    8.0
C     2.1   -8.8   -3.8
H     2.8    5.6   -7.6
H     2.9    9.1    2.9
I     1.6   -8.7    4.6
I    -0.1    9.9   -1.7
H    -6.3   -4.4    6.6
H     6.7   -1.1   -7.5
H     0.9   -9.8   -2.4
H     5.4   -7.8    3.7
P    -7.2    0.3    7.1
I     8.0   -4.7   -4.2
I    -2.8   -4.8   -8.5
I     2.0   -1.5    9.9
H    -6.0    4.8    6.6
H     1.3   -9.0   -4.6
H     9.6   -2.6    2.1
H     5.9   -1.2    8.3
P    -7.3   -6.9    2.0
I    -2.7    9.6    2.0
I    -9.9    2.6    0.8
H     9.9    1.2   -2.4
C    -2.3   -8.6    5.1
C     2.3    9.8    2.2
I     8.0   -1.2    6.3
H    -1.5   -1.6   10.0
H     0.8    6.4    8.0
H     1.0   -6.3    8.1
H    -4.4   -1.7    9.2
H     2.8   -4.2   -9.0
H     9.7    2.8   -2.4
H     0.6   -6.1   -8.4
H     4.6   -1.7    9.2
H     2.1   -5.3    8.8
I    -5.4   -9.0    0.4
H    -2.9    1.7   -9.9
I     4.3    9.3   -2.2
H    -1.6    8.9   -5.3
H     1.6    7.0   -7.7
I     8.8   -4.7    3.4
N    10.2   -2.1    1.4
N     1.3    5.4   -9.0
C     2.2    6.2   -8.3
I    -4.6    9.3   -2.2
H     2.2    5.7    8.8
C    -2.6   -1.5   10.3
N     1.2   -5.6   -9.0
H    -3.5   -9.5    3.6
H     2.9   10.3    1.5
H     2.8   -9.7   -3.9
I    -9.1   -4.7    3.4
N     5.6   -1.8    9.0
I     3.5   -1.5  -10.1
H     1.8    4.6   -9.6
I    -2.8    6.1   -8.5
H     5.8   -2.8    8.7
I    -0.2   -8.2   -7.1
I     6.3   -5.1    7.3
H    -7.1    8.2    0.9
N    10.4    2.1   -2.5
H    -6.4   -7.9   -3.9
P     6.2   -6.8   -5.9
H    -3.0   -8.6    5.9
H    -6.1   -6.1    6.6
H    -1.6   -9.5    5.2
C    -6.8   -5.3    6.7
H    -2.8   -0.5   10.6
P    -2.8    3.9    9.8
P    -2.8  -10.5   -0.7
P     6.3    7.7    4.6
H    10.6   -0.5    2.8
H     1.7   10.5    2.8
H     0.6   -5.1   -9.7
H    -7.5    5.5    5.9
H    -7.5   -5.5    5.9
I     8.0    6.3   -4.2
C    -6.8    5.6    6.7
I     6.2   -8.6   -3.2
P    -7.2    7.8   -3.3
H    10.7   -2.8    0.9
N     6.0   -8.6    3.8
H    -6.2   -5.3   -7.6
P    -7.3    0.5   -8.5
H    -3.0    9.8   -4.6
H    -6.3    6.6    6.6
H    -6.9   -8.8   -1.7
I     6.3    5.9    7.3
H    -6.2    5.6   -7.6
H     6.7   -8.6    3.0
H    -1.6    2.3  -10.9
C    -2.7    2.4  -10.7
I     8.8    6.3    3.4
H    -6.1    9.1    2.9
H    -2.9    3.5  -10.4
H     0.7    5.9   -9.7
H    11.0    2.2   -1.7
H    -7.4   -4.0   -7.7
C    -2.3    9.8   -5.4
I     3.7    9.2    5.7
I     1.6    9.7   -5.9
C    11.2   -1.2    2.2
H     0.8    2.0   11.3
H    10.3    2.0   -4.6
H     5.4   -9.5    3.6
I     1.9    2.5  -11.1
I     6.1   -4.8   -8.5
I    -9.1    6.3    3.4
H     1.9    0.7   11.4
I    -5.5   -1.5  -10.1
I     8.0   -8.3    0.8
P    10.6   -3.2   -3.3
P    10.7    4.1    2.0
I     8.8    2.8   -7.1
H     2.8    6.7   -9.0
H     1.7   -6.3   -9.6
H    -2.9   -2.2   11.1
I     6.2    9.6    2.0
I    -0.9    9.8    6.3
H    -6.1   -4.2   -9.0
H   -10.5   -5.1   -0.5
C    -6.8   -4.7   -8.3
P    -2.8   11.4   -0.7
H     6.0    1.7   -9.9
I    -9.9   -1.2    6.3
I    -9.9   -4.7   -4.2
H     7.3   -7.7    5.2
I    10.6    2.2    4.6
H    -3.5    8.9   -6.8
P   -11.8    0.4   -0.7
N    -7.6    8.9    1.4
H   -11.2    2.4    3.0
H   -10.5    1.5    5.2
C    -6.9   -8.8   -3.8
H    -8.3   -8.1   -2.4
H     1.6  -11.4    2.8
I    -9.1    2.8   -7.1
C    11.1    2.1   -3.8
H    -8.3    8.3    2.1
H   -10.7   -0.2   -5.3
N    -7.6   -8.9   -2.5
P    -2.9   -3.1  -11.2
H    11.8   -0.7    1.5
I    10.9   -5.0   -0.6
I   -11.7   -1.3    2.0
H    -6.1   10.3    1.5
H     5.9   -8.6    5.9
H   -10.6   -2.0   -5.3
H   -10.5    5.9   -0.5
C     6.7   -8.6    5.1
C    -6.7    9.8    2.2
I    -5.3    9.2    5.7
H    -6.1   -9.7   -3.9
H     2.8  -11.7    1.5
H    -1.7   10.7   -5.3
I    -0.2  -12.0   -1.7
N     1.3    1.4   11.9
I     6.1    6.1   -8.5
I    10.6   -1.3   -5.9
C     6.4   -1.5   10.3
I    -7.0   -1.5    9.9
N    -7.5   -5.3    8.0
P     6.1  -10.5   -0.7
I    -0.1   -8.5    8.8
H     6.1   -0.5   10.6
N    -2.9    9.8   -6.7
H    11.8   -1.8    2.9
H   -10.6    3.3    5.2
P     6.2    3.9    9.8
I    -7.3   -8.7    4.6
N    -7.5    5.6    8.0
H    -6.8   -5.3    8.8
H    -8.0    4.7    8.1
H     5.9    9.8   -4.6
I   -11.7    2.4   -3.2
H    -3.1    8.2    8.7
I    -0.9   -4.8   11.3
I     4.3   -9.0   -7.3
C    -6.8    6.2   -8.3
P    -2.8   -7.0    9.8
H    -8.2   -4.6    8.0
H     1.0   12.1   -2.4
I    10.9    6.0   -0.6
H     2.0   -1.3  -12.2
I    -9.9    6.3   -4.2
H    -6.8    5.7    8.8
H    11.8    1.3   -3.9
H   -11.8   -4.0    0.1
H     5.4    8.9   -6.8
I    -4.7   -9.0   -7.3
H    -1.8  -11.2   -5.3
H    -8.2    9.4    0.8
C   -11.2    2.4    5.1
C   -11.2   -1.2   -5.4
H     6.0    3.5  -10.4
C     2.2  -12.2    2.2
H    -2.2    9.8   -7.5
H     0.7  -12.5    0.8
I     8.0   -0.9   -9.6
H     7.4   -1.6   10.0
N    -3.4    2.1  -11.9
H    11.6    3.1   -3.9
C   -11.6   -5.0   -0.2
H     2.9    2.8   12.0
H     0.7    0.9   12.6
H    -7.6   -9.0   -4.6
C     6.3    2.4  -10.7
N   -11.9    2.3    3.8
I    12.5    2.0    0.4
I     3.6   -5.4   10.9
I     3.6    5.5   10.9
