         400
 sphere cut out from bulk 
P    -0.0    0.0   -0.1
I    -0.6   -3.1    0.1
I    -1.8    0.6    2.5
I     0.7    3.2   -0.2
I     2.7   -0.4    1.9
I    -2.5    0.5   -2.0
I     1.9   -0.3   -2.6
H    -0.1   -2.2    3.2
H     0.3    2.5   -3.1
H     3.2    2.7   -0.3
H    -0.2    2.4    3.4
H     4.0    1.7    0.8
H    -3.2   -3.1    0.7
H    -3.0    3.3    0.9
H     3.2   -3.1   -1.0
H    -4.2    2.0   -0.7
N     4.1    2.4    0.0
C     0.3   -3.1    3.7
H     1.2   -2.2   -4.1
H    -4.1   -2.2   -1.3
C    -0.3    2.9   -4.0
H     4.2   -2.3    1.0
H    -1.3    3.2   -3.6
H     1.4   -3.1    3.6
N     0.2    3.2    3.9
H     1.2    3.2    3.8
H    -0.1   -4.0    3.2
H     4.7    2.0   -0.7
H    -0.4    2.1   -4.7
H    -4.9    1.7    0.8
H    -4.6   -2.3    1.0
N    -4.2   -3.1    0.6
N    -4.7    2.4    0.0
H    -0.2    4.1    3.5
H    -1.0   -3.0   -4.3
C    -4.0    3.6    0.6
C     4.3   -3.1   -0.9
H     4.8   -2.2   -1.3
C    -4.5   -3.1   -0.9
N     4.6   -3.1    0.6
N     1.0   -3.1   -4.7
H     1.2   -3.9   -4.1
H    -3.9    4.3   -0.2
H     4.2   -4.0    1.0
H    -4.1   -4.0   -1.3
N    -0.1   -3.1    5.1
C    -0.4   -3.0   -5.2
H     4.3    4.0    1.4
H     0.3   -2.2    5.6
N     0.4    4.0   -4.5
C     4.9    3.6    0.6
H     0.6    4.8   -3.8
H    -1.1   -3.1    5.2
H    -0.5   -2.1   -5.8
H    -4.6   -4.0    1.0
P     0.0   -6.2   -0.1
H     0.3    2.3    5.8
C    -0.1    3.2    5.4
H    -4.6    4.0    1.4
H    -5.7    2.7   -0.3
H     1.4    3.7   -4.9
P    -4.4    0.1    4.6
P    -4.4    0.1   -4.6
H     4.8   -4.0   -1.3
P     0.1    6.4   -0.1
P     4.5    0.1    4.6
P     4.5    0.1   -4.6
I    -6.2   -0.4    1.9
H    -1.2    3.2    5.5
H     1.7   -3.0   -5.5
H    -5.6   -3.1   -1.0
H     5.7   -3.1    0.7
H     5.0    4.3   -0.2
I     2.6   -5.8    1.9
I     3.8    3.2    4.3
I    -3.7   -3.1    4.6
I     6.3    0.5   -2.0
I    -1.7    5.9    2.6
I     1.9   -5.8   -2.7
I    -2.4    5.9   -2.1
H     5.8    3.3    0.9
I     1.9   -0.4    6.5
I    -4.0   -3.1   -4.6
H     0.3   -3.9    5.6
I    -1.9    0.5   -6.6
H    -0.1    4.5   -5.3
I     3.9    3.2   -4.8
H    -0.6   -3.9   -5.8
H     0.3    4.1    5.8
I     4.9   -3.1   -4.6
I    -5.1    3.2    4.3
I    -2.4   -6.7   -2.1
I    -1.8   -6.7    2.6
I    -6.9   -0.3   -2.6
I     7.0    0.6    2.5
I    -2.5    0.5    7.1
I     2.0    6.8   -2.7
I     5.2   -3.1    4.6
I     2.7    6.8    1.9
I    -5.0    3.2   -4.8
I     2.6   -0.5   -7.2
I    -6.2   -5.8    1.9
H     0.5   -7.9   -3.8
I    -8.2    3.2   -0.2
I     8.2   -3.1    0.1
H    -7.4   -3.1    3.6
I     1.9   -5.7    6.5
P     8.9    0.0   -0.1
P    -8.9    0.0   -0.1
P    -4.2    6.3   -4.6
P    -4.3   -6.3   -4.6
P    -4.4   -6.3    4.5
P    -4.3    6.3    4.5
P     4.5   -6.3    4.5
H    -7.6   -2.2   -4.1
H     7.6    3.2   -3.6
P     4.5   -6.3   -4.6
P     4.5    6.3    4.5
I    -1.8    5.9   -6.6
I     6.5    5.9   -2.1
P     4.6    6.3   -4.6
H    -7.6    3.2    3.8
H    -4.2   -2.2    7.7
P     0.1    0.0    9.1
P     0.1    0.0   -9.1
H    -4.0   -8.3   -0.2
H     0.0    8.6    3.2
H    -2.7    3.2   -8.2
H     3.9    2.3   -8.0
H    -0.3   -8.5    3.5
H     3.1   -3.1    8.1
H     4.6   -2.2    7.7
I    -6.2    6.8    1.9
H     7.8   -3.0   -4.3
I     0.6   -9.4   -0.2
H    -8.6    2.5   -3.1
H     4.2   -2.3   -8.1
H    -3.1    2.4    8.6
I    -7.0   -5.8   -2.7
I     6.4   -6.7   -2.1
I    -6.9   -0.4    6.5
H    -7.6   -3.9   -4.1
H    -7.2   -3.0   -5.5
I    -0.5    9.5    0.1
H    -4.0    8.6   -1.3
I     2.6   -5.8   -7.2
I    -2.4    5.9    7.1
I    -1.9   -6.7   -6.6
I     6.4    0.5    7.1
I    -6.3   -0.5   -7.2
I     7.1    5.9    2.6
H     8.6    2.4    3.4
I    -0.7   -3.1   -9.1
H     4.9   -8.3   -0.2
H     8.8   -2.2    3.2
I     0.6    3.2    9.0
I     6.9    0.5   -6.6
N    -7.8   -3.1   -4.7
H    -3.2   -3.1   -8.5
H    -4.7   -2.3   -8.1
I     2.0    6.9    6.5
H     4.2   -8.6    1.4
H    -4.2   -4.0    7.7
H    -7.5    3.7   -4.9
H     4.3    8.6    1.0
H    -0.2   -8.1   -5.3
N     0.4   -8.6   -4.5
H    -4.9    2.3   -8.0
H     1.3    8.7   -4.1
H    -8.9   -2.2    3.2
I    -0.6   -3.1    9.2
C     4.2   -3.1    8.2
I     0.5    3.2   -9.2
C    -8.5   -3.1    3.7
H     3.9    4.1   -8.0
H     7.7   -3.1    5.2
H    -4.6    8.6    1.0
C     8.6    2.9   -4.0
H     4.6   -4.0    7.7
H    -3.1   -9.3    0.9
H    -4.7   -8.6    1.4
H     8.4    2.1   -4.7
C    -4.1   -9.0    0.6
C    -4.6   -3.1    8.2
H     4.8    8.6   -1.3
H     7.7    3.2    5.5
I    -9.5   -3.1    0.1
H     3.5    3.2    8.8
H     9.2    2.5   -3.1
H     4.2   -4.0   -8.1
H    -3.1    9.5    0.7
H    -9.1    2.4    3.4
I    -6.9    6.8   -2.7
N    -8.7    3.2    3.9
H    -3.1    4.0    8.7
C     4.1    3.2   -8.6
I     7.0   -6.7    2.6
I     9.6    3.2   -0.2
H     3.3    9.5   -1.0
I    -2.5   -6.7    7.1
N    -4.3   -3.1   -8.6
H     8.6    4.1    3.5
N    -3.3    3.2   -9.0
H    -1.3   -9.4   -3.6
H     8.8   -4.0    3.2
N     0.1   -9.4    3.9
H    -4.7   -4.0   -8.1
H     1.2   -9.4    3.8
H     1.3   -8.9   -4.9
C     4.8   -9.0    0.6
C     0.4    9.5    3.7
H    -4.9    4.1   -8.0
N     4.6   -3.1   -8.6
H    -8.3    4.8   -3.8
H    -8.9   -4.0    3.2
I     2.6    6.8   -7.2
N    -3.3    3.2    9.2
H     1.5    9.5    3.6
H     0.3   -8.5    5.8
H     0.4    8.7    5.6
C    -4.8    3.2   -8.6
H     8.3   -2.1   -5.8
N    -4.1    9.5    0.6
C     9.2   -3.1    3.7
N     9.1    3.2    3.9
C    -9.2    2.9   -4.0
N    -8.4    4.0   -4.5
C     8.5   -3.0   -5.2
H     3.1   -9.9   -0.3
H    -3.1    2.4   -9.6
H    -5.7   -3.1    8.1
H    -0.5    8.7   -5.8
H    -8.6   -2.2    5.6
C     4.4    9.5   -0.9
C    -4.4    9.5   -0.9
C    -0.4   -9.7   -4.0
H    -9.1    4.1    3.5
H    -1.0    9.6   -4.3
H    -8.5    2.3    5.8
N     4.7    9.5    0.6
N     8.8   -3.1    5.1
H     3.5    3.2   -9.5
H     5.7    2.4    8.6
H     0.2  -10.1   -3.1
H    -9.3    2.1   -4.7
H     5.6   -3.1   -8.5
H    -3.2   -3.1    9.7
N     1.1    9.5   -4.7
N    -8.9   -3.1    5.1
H     6.2    3.2   -8.2
C     8.8    3.2    5.4
H    -5.4    3.2    8.8
P    -8.8   -6.2   -0.1
H    -0.3  -10.2    3.4
N    -0.0    9.5    5.1
P    -8.7    6.4   -0.1
C    -0.2   -9.4    5.4
H     8.3   -3.9   -5.8
P     8.9   -6.2   -0.1
H    -2.7    3.2   10.0
H    -3.1    4.0   -9.6
H    -1.0    9.5    5.2
C    -0.3    9.6   -5.2
H     0.0   10.4    3.2
C    -9.0    3.2    5.4
H    -8.6   -3.9    5.6
H     9.2   -2.2    5.6
H    -1.3   -9.4    5.5
C     4.1    3.2    9.7
N     4.1  -10.2    0.0
I   -10.7    0.6    2.5
N    -4.2   -3.1    9.6
P     0.1   -6.2    9.1
I     3.7   -9.4    4.3
H     5.8   -9.3    0.9
P     9.0    6.4   -0.1
H    -5.5    9.5   -1.0
C    -9.2   -3.0   -5.2
H     3.1   -3.1  -10.1
N     5.5    3.2   -9.0
N     9.3    4.0   -4.5
H    -8.5    4.1    5.8
P     0.1   -6.2   -9.2
I    -7.0   -5.7    6.5
H     5.7    9.5    0.7
P     0.1    6.4    9.1
H     9.2    2.3    5.8
H    10.1   -2.2   -4.1
I    10.8   -0.3   -2.6
N     4.6   -3.1    9.6
H     8.7    4.5   -5.3
H     5.8    4.0    8.7
I    -6.3   -5.8   -7.2
I    -3.6    9.5    4.6
H     1.8    9.6   -5.5
H    -4.0   10.4   -1.3
H     3.9    2.3   10.2
P     0.1    6.4   -9.2
H     4.2   -2.3   10.1
I     3.8   -9.4   -4.8
H    -9.9   -3.0   -4.3
H   -10.1    3.2   -3.6
H    -9.4   -2.1   -5.8
H     4.3   10.3    1.0
C    -4.7    3.2    9.7
N     5.5    3.2    9.2
H    10.1    3.2    3.8
H     1.3   10.4   -4.1
I    -3.9    9.5   -4.6
H     9.5    4.8   -3.8
N    -4.8  -10.2    0.0
I     6.4    5.9    7.1
H    -4.6   10.3    1.0
C     4.2   -3.1  -10.1
H    10.3   -3.1    3.6
I     7.1    5.9   -6.6
H    -9.0    4.5   -5.3
H    -4.6   -2.3   10.1
N     9.9   -3.1   -4.7
I     2.6   -0.5   11.1
H    -5.4    3.2   -9.5
H     9.2   -3.9    5.6
I    -2.5    0.5  -11.2
H     5.7    2.4   -9.6
H    -5.7   -9.9   -0.3
H    -4.2  -10.6   -0.7
C    -4.7   -3.1  -10.1
H     4.8   10.4   -1.3
H    -0.5  -10.5   -4.7
I    -5.1   -9.4    4.3
H    -4.2   -2.2  -10.5
H    10.1   -3.9   -4.1
H    -4.9    2.3   10.2
I   -11.4    0.5   -2.0
H     3.9  -10.9    0.8
H     9.2    4.1    5.8
H     4.6  -10.6   -0.7
H     4.2   -4.0   10.1
I     6.3   -6.7    7.1
H   -10.0   -3.1    5.2
I     5.0    9.5   -4.6
H     5.7   -3.1    9.7
I    11.5   -0.4    1.9
I    -6.9    6.9    6.5
I    -5.1   -9.4   -4.8
H     4.6   -2.2  -10.5
I     7.0   -6.7   -6.6
I    -6.2    6.8   -7.2
H    -9.4   -3.9   -5.8
H     3.9    4.1   10.3
H     0.4   10.4    5.6
I    -1.9    0.5   11.6
I     5.2    9.5    4.6
H    -4.6   -4.0   10.1
H     0.3  -10.3    5.8
H   -10.0    3.2    5.5
H     5.7    4.0   -9.6
H    10.2    3.7   -4.9
I     1.9   -0.5  -11.8
H    -0.4   10.5   -5.8
H    -4.9  -10.9    0.8
H    -4.2   -4.0  -10.5
H    -5.7   -3.1  -10.1
H    -8.3   -7.9   -3.8
H    -4.9    4.1   10.3
H     4.6   -4.0  -10.5
H     6.2    3.2   10.0
H    -7.6    8.7   -4.1
H    10.5   -3.0   -5.5
H    -4.1    8.6    7.7
H     3.8   -8.5   -8.0
H   -11.9    3.3    0.9
H    12.1    2.7   -0.3
I   -10.6    5.9    2.6
I    -1.9  -12.0    2.5
H   -12.0   -3.1    0.7
H     4.7    8.6    7.7
I    -8.2   -9.4   -0.2
I    10.8   -5.8   -2.7
H    12.1   -3.1   -1.0
I    -2.6  -12.1   -2.0
H     7.5   -9.4   -3.6
H    -7.3    9.5    3.6
H    -3.2   -8.6    8.7
P    -0.1  -12.6   -0.1
H     8.6   -8.5    3.5
I    10.8   -0.4    6.5
I     8.2   -3.1   -9.1
H     4.3    8.6   -8.1
P     0.1   12.6   -0.1
I     8.3    9.5    0.1
H    -7.6   -8.9   -4.9
P    -8.8    0.0    9.1
I   -10.8    0.5   -6.6
I     2.8   12.2    1.9
H    -0.5   -2.1   12.5
H     0.3    2.3  -12.5
P    -8.8    0.0   -9.1
I    -8.3    3.2    9.0
I     2.0   12.3   -2.6
