         400
 sphere cut out from bulk 
H     0.1   -0.2   -1.7
H    -1.5   -0.0   -1.6
N    -0.8   -0.6   -2.0
I    -1.5    0.0    1.7
H    -0.8   -1.5   -1.7
I     2.3    0.5   -0.6
P     0.8    2.2    1.7
H     1.9   -2.4    0.6
C    -0.8   -0.5   -3.5
I    -0.6   -3.8   -0.5
I    -0.7    3.8   -0.7
H    -0.8    0.5   -3.8
H     0.0   -1.1   -3.9
C     2.7   -2.9    1.2
H     2.5   -1.7    2.9
H    -2.8    2.8    1.5
H    -1.7   -1.0   -3.8
P    -2.8   -2.9    1.7
H     3.7   -2.5    0.9
N     2.5   -2.7    2.6
H     1.6   -3.1    2.9
H     2.2    3.5   -2.1
I     2.4    0.6    4.0
H     2.8   -4.0    1.0
H    -1.0   -0.4    4.9
H    -4.6    1.3    1.9
I    -4.7   -2.0   -0.7
H    -4.8    2.0    0.4
C    -3.8    3.2    1.8
I     2.7   -2.9   -3.5
P     4.5   -0.4   -2.8
N    -4.8    2.2    1.4
N     2.9    4.2   -2.1
H     3.3   -3.2    3.2
I    -0.7   -3.8    4.0
H     3.0    4.6   -1.1
I    -0.7    4.0    3.9
I     3.3    4.4    1.6
I    -4.8    2.3   -2.2
H     3.8    3.7   -2.3
H    -3.9    3.4    2.9
H    -4.0    4.1    1.2
I     2.9    1.3   -5.1
H     5.2    2.5    1.7
C    -1.0    0.1    5.9
H    -0.2    0.8    6.0
I    -1.4    3.1   -5.1
P    -2.7    4.8   -2.8
P     0.9   -5.5   -2.8
H    -0.4   -6.2    1.2
H     6.1    2.0    0.4
H    -0.9    6.3    1.0
H    -5.8    2.5    1.7
I     6.2   -2.0   -0.7
H    -1.9    0.5    6.2
H    -3.9   -4.3   -3.1
H     1.6    5.7   -2.8
N     6.1    2.2    1.4
C     2.6    5.3   -3.1
I    -5.0   -2.1    3.9
H     6.3    1.3    1.9
H     2.6    4.8   -4.1
I    -4.4   -1.1   -5.1
H     0.3   -1.4    6.7
I    -1.3   -4.5   -5.1
I     6.1    2.3   -2.2
H     1.9    4.2    5.2
P    -6.4   -0.4   -2.8
N    -0.7   -1.0    6.9
I     3.0   -6.5   -0.7
H     3.4   -1.8   -6.2
H    -4.3   -5.8   -1.1
H    -1.4   -1.7    6.9
I    -4.0   -5.9    1.6
C    -0.2   -7.1    1.8
H    -4.1    2.0   -5.9
I     5.9   -2.1    3.9
I    -4.5    2.2    5.5
I    -0.4   -0.8   -7.5
H    -0.2   -7.0    2.9
H     3.7    4.1    5.1
H     3.4    6.0   -3.1
C    -4.7   -5.1   -3.1
C    -0.9    7.4    1.2
H     5.3   -4.6   -2.8
H    -7.2   -2.5    0.9
P     0.8    2.3   -7.3
H     0.8   -7.5    1.5
P     4.6   -0.3    6.2
C     2.9    4.6    5.5
H    -3.4   -6.6   -2.3
N    -4.4   -6.1   -2.1
H    -5.6   -4.6   -2.8
I    -4.3    6.5   -0.5
H    -0.4    7.2    3.2
I     2.6   -2.8    6.9
H     0.1    7.9    0.9
H    -0.6   -0.6    7.9
H     1.5   -2.6   -7.4
I     3.0   -6.3    3.9
C     7.1    3.2    1.8
H    -2.0    7.2    2.9
H    -1.7    7.9    0.6
H     6.9    4.1    1.2
N    -1.1    7.6    2.6
I    -0.9    7.4   -3.5
H    -4.3   -4.7    5.2
C     3.4   -2.0   -7.2
H     2.9    5.7    5.2
H     5.2    2.0   -6.1
H    -2.1   -7.8    1.7
P    -2.7    4.7    6.2
H    -7.1    3.7   -2.3
H    -4.7   -5.5   -4.1
H     7.1    3.4    2.9
I    -1.1   -8.0   -2.2
P    -2.9   -2.9   -7.3
N    -1.2   -8.2    1.4
N    -4.8    2.5   -6.4
P     0.9   -5.6    6.2
I     6.6   -1.1   -5.1
H    -1.2   -8.3    0.4
H     3.2   -1.0   -7.8
H     2.6   -3.9   -7.1
N     2.4   -3.0   -7.6
H    -4.8    3.5   -6.1
H    -5.7    2.0   -6.1
C     6.2   -5.1   -3.1
I    -8.6    0.5   -0.6
H     8.1    2.8    1.5
H     2.9    3.6    7.4
I     2.5    8.3   -0.7
I     6.4    2.2    5.5
C    -8.2   -2.9    1.2
I    -4.3    6.5    4.0
P     8.1   -2.9    1.7
H     7.0   -4.3   -3.1
H    -5.1   -6.9   -2.1
H     6.6   -5.8   -1.1
H    -3.5   -6.3    5.1
P    -6.3   -0.3    6.2
P     4.5    7.4    1.7
H    -7.6   -3.2    3.2
N     2.9    4.6    7.0
I    -7.7    4.4    1.6
I    -1.0    3.2    8.4
H     4.4   -2.3   -7.5
H    -8.4   -1.7    2.9
C    -4.4   -5.7    5.5
I     3.1    1.4    8.5
I    -4.9    5.8   -5.1
H    -8.2   -4.0    1.0
H    -1.1    8.6    2.9
N     6.1    2.5   -6.4
I     2.3   -7.3   -5.1
I     2.1    5.2   -7.3
N    -8.4   -2.7    2.6
N     6.6   -6.1   -2.1
H    -7.9    4.6   -1.1
I     6.9   -5.9    1.6
H     6.9    2.0   -5.9
H     5.8   -6.9   -2.1
H     6.2   -5.5   -4.1
N    -8.0    4.2   -2.1
H    -1.2   -6.9   -6.1
H    -3.6    2.7   -8.1
H    -1.0   -9.0    1.9
H     2.2    5.1    7.5
H     6.1    3.5   -6.1
H    -9.0   -2.4    0.6
I     6.7    6.5   -0.5
H    -4.6    1.2   -8.1
C    -4.6    2.3   -7.9
I     2.3    8.2    3.9
P     4.5   -8.1    1.7
I    -8.2   -2.9   -3.5
I    -8.5    0.6    4.0
I    -4.2   -1.4    8.4
H     2.4   -3.2   -8.6
H     9.4   -0.0   -1.6
I     9.4    0.0    1.7
I    -8.0    1.3   -5.1
H     6.6   -4.7    5.2
H    -8.7    3.5   -2.1
H    -1.0    6.5   -7.1
H    -5.3   -6.1    5.2
I    -1.2   -4.6    8.4
H     3.8    5.0    7.4
H    -7.2    4.1    5.1
H    -3.4   -5.3    7.4
I     6.0    5.8   -5.1
H     5.6   -6.1    5.2
I    -0.9   -8.1    5.5
H    -7.6   -1.8   -6.2
P     8.2    4.8   -2.8
H    -4.4    8.8   -1.7
H     9.2   -1.0   -3.8
P    -6.4    7.4    1.7
N    -4.3   -5.7    7.0
I     6.6    6.5    4.0
H    -7.5    6.0   -3.1
I     3.0    1.4   -9.6
H    -0.4   -8.3   -5.9
H    -0.7   -0.6  -10.2
N    -1.2   -7.9   -6.4
H    -6.5   -2.3   -7.5
I    -1.1    7.5    6.9
H     7.5   -6.6   -2.3
H    -9.3   -3.1    2.9
I    -1.2    3.2   -9.7
C     6.5   -5.7    5.5
H     2.5   -3.2    9.4
C    -8.3    5.3   -3.1
I    -7.9   -6.5   -0.7
I    -5.2   -5.1   -7.3
H     6.3    1.2   -8.1
C     6.3    2.3   -7.9
P     0.9    9.9   -2.8
H    -5.4    2.8   -8.4
N    10.2   -0.6   -2.0
H    10.1   -1.5   -1.7
H     5.5    2.8   -8.4
H    -5.1   -5.2    7.5
P   -10.1    2.2    1.7
H    -8.4    4.8   -4.1
P    -6.4   -8.1    1.7
H    -2.1   -8.3   -6.1
H    -0.3    8.5   -6.2
I     5.7   -5.1   -7.3
C    -7.5   -2.0   -7.2
I    -0.3   -0.8   10.6
N    -1.2    7.3   -7.6
I     2.1  -10.3    1.7
H    -3.6    9.2   -3.9
H     2.1  -10.4   -1.6
C    10.1   -0.5   -3.5
I    -4.4   -1.4   -9.7
I    -1.4   -4.6   -9.6
C    -8.0    4.6    5.5
I     6.7   -1.4    8.4
H     5.8   -5.2    7.5
H     3.3   -1.1   10.3
H    10.2    0.5   -3.8
H    -2.2    7.7   -7.4
I    -7.9   -6.3    3.9
H    -3.5   10.2   -1.7
H    -4.4   -6.7    7.4
N    -4.4    9.8   -2.0
H    -3.5    2.7   10.0
H   -10.8   -0.2   -1.7
H     2.9   -9.8   -3.8
I     2.9    9.2   -5.1
H     9.0    0.5    6.2
H     7.4   -6.3    5.1
I    10.3    3.8   -0.7
I    -1.3   10.9   -0.6
I    -4.9   -9.8   -0.6
I    10.3   -3.8   -0.5
H     0.8    8.0   -7.5
H    -4.5    1.2   10.0
H    -7.7   -1.0   -7.8
P     0.9    2.3   10.8
H     6.5    8.8   -1.7
C    -0.2    8.4   -7.2
H     9.9   -0.4    4.9
H    -8.0    5.7    5.2
H     0.0   -7.6   -8.1
H     1.6   -2.7   10.7
N     2.5   -3.0   10.5
H    -9.0    4.2    5.2
H    11.1   -0.2   -1.7
I    -8.4   -2.8    6.9
N    -0.8   -1.0  -11.1
N     6.6   -5.7    7.0
I    -4.4   -9.0   -5.1
H     7.3    2.7   -8.1
H    -9.3    5.7   -2.8
I     9.5    3.1   -5.1
P     8.1   -2.9   -7.3
H     3.8  -10.5   -1.7
H    -1.2    7.2   -8.6
I    -4.9    5.7    8.4
C    -1.0   -8.1   -7.9
P     4.4    7.4   -7.3
C    -4.4    9.8   -3.5
I     2.6   -7.2    8.4
P     8.2    4.7    6.2
H    -5.3    2.7    9.7
H    -1.5   -1.7  -11.1
C    -4.5    2.2   10.2
H    -7.1    5.0    7.4
H     0.1   -1.4  -11.3
N     2.9  -10.9   -2.0
P    -2.8  -10.7   -2.8
H    -5.4    9.3   -3.8
H    -1.8   -7.6   -8.4
H    -8.0    3.6    7.4
I     6.0   -9.8   -0.6
P    -2.7   -2.9   10.8
H     5.6    2.7    9.7
H     5.5    9.3   -3.8
C     3.5   -2.0   10.8
I    -4.9   -9.7    4.0
N    -8.0    4.6    7.0
C     9.9    0.1    5.9
H    -8.3   -3.9   -7.1
H   -10.9   -1.1   -3.9
H    -5.2   10.3   -1.6
I    10.2   -3.8    4.0
H     2.8    3.6  -10.7
I    -7.9    1.4    8.5
H    -3.4    8.9    6.7
H    11.0   -1.1   -3.9
I    10.3    4.0    3.9
I    -1.2   10.9    4.0
I    -5.1   10.4    1.7
H     4.5   -2.4   10.5
H     1.7   -9.8    6.2
P     4.4   -8.0   -7.3
H     3.4   -9.5    6.0
C     2.8  -10.8   -3.5
P   -10.0   -5.5   -2.8
H     7.5   -5.3    7.4
I     9.6   -4.5   -5.1
I     6.6   -1.4   -9.7
I     2.4   -2.8  -11.2
P     1.0   10.0    6.2
N    -8.5   -3.0   -7.6
H     8.9    7.2    2.9
I     6.0    5.7    8.4
I    -8.4    8.3   -0.7
N   -11.7   -0.6   -2.0
H     8.8   -7.8    1.7
H    -1.1    7.1    9.4
H     5.8   10.3   -1.6
H     9.5   -1.7    6.9
N     6.5    9.8   -2.0
H   -11.7   -1.5   -1.7
H    10.0    6.3    1.0
H     6.5   -6.7    7.4
H     2.1    5.1  -10.6
H     2.7   -3.9   11.0
H     6.5    1.2   10.0
I     5.8   10.4    1.7
H    -2.1    0.5  -11.9
H    -4.7   10.0    4.9
H     2.7   11.6    1.9
H     2.6  -10.7    4.9
H     1.9  -11.3   -3.8
P    11.8    2.2    1.7
I     6.0   -9.7    4.0
H    -0.3    0.9  -12.1
H    -0.4    9.3   -7.8
C     2.7  -10.2    5.9
I     2.2    5.2   10.8
H    -5.0    8.6    6.9
H     9.2    7.9    0.6
I   -11.6   -3.8   -0.5
C    -1.1    0.1  -12.1
I   -11.6    3.8   -0.7
I     6.5   -9.0   -5.1
H    -0.9   -9.1   -8.1
C   -11.7   -0.5   -3.5
C     6.5    9.8   -3.5
P    -6.5    7.4   -7.3
H    -9.5   -2.6   -7.4
I    -5.0    5.7   -9.6
C     6.4    2.2   10.2
H    10.5   -6.2    1.2
I     2.5   -7.1   -9.7
N     2.8    4.6  -11.0
H   -11.7    0.5   -3.8
H    -4.4   10.8   -3.8
H    10.7    0.8    6.0
H     2.8  -11.9   -1.7
H     3.7    5.0  -10.7
I    -1.1  -12.3   -0.7
H    -1.7   -7.6    9.7
N    -4.3    9.3    6.9
H     7.3    9.2   -3.9
I    -8.7   -7.3   -5.1
N    10.3   -1.0    6.9
H    -3.6   -5.3  -10.7
H    -8.5   -3.2   -8.6
I    -8.6    8.2    3.9
H     3.5   -1.8   11.9
C    10.0    7.4    1.2
H     5.9    8.6    6.9
I    -8.0    1.4   -9.6
H     0.1   -7.6   10.0
H   -12.4   -0.0   -1.6
I   -12.4    0.0    1.7
H    -6.4   -2.4   10.5
H     2.5   12.3    0.4
I    -0.7  -11.5   -5.1
H    -8.7    5.1    7.5
I    -8.8    5.2   -7.3
H     3.7  -11.4   -3.9
P    -2.7  -10.7    6.2
I     3.0    8.9    8.4
