         400
 sphere cut out from bulk 
I    -0.3   -0.2    2.1
P    -0.3    2.1   -0.2
I     2.2    0.2   -1.3
I    -2.8    0.2   -1.3
P     2.2   -2.1    1.0
P    -2.8   -2.1    1.0
I    -0.3   -3.6   -0.3
I     2.2    3.6    1.2
H    -0.3    0.0    4.6
H    -2.8   -0.1   -3.7
I    -2.7    3.6    1.1
I    -0.3    3.7   -2.9
H     1.3    1.4   -4.5
P     4.7    2.1   -0.2
I     4.7   -0.2    2.1
H     2.9    0.5   -4.2
H    -2.0   -0.7   -5.1
H     1.3   -4.1   -3.4
N    -2.8   -0.2   -4.8
C     2.3    1.1   -4.9
H     2.2   -4.7   -2.0
N    -0.3    0.1    5.6
I    -5.2   -0.2    2.1
I     2.2   -3.6    3.7
H    -1.9    1.7   -5.0
H    -0.3    5.0    2.7
P    -5.2    2.1   -0.2
H    -1.9   -4.2   -3.3
H     0.6    4.2    4.1
I    -2.8   -3.6    3.8
I     4.7   -3.6   -0.3
H     0.5    0.6    5.9
H    -2.8   -4.9   -1.9
C     2.2   -4.6   -3.1
H    -1.2    4.2    4.1
H    -1.1    0.7    5.9
H     1.5   -0.7   -5.8
C    -0.3    4.8    3.8
I    -0.3   -2.5   -5.6
C    -2.8    1.2   -5.4
H     3.1   -4.1   -3.4
H     0.6   -1.8    5.9
H    -3.6   -0.7   -5.1
C    -2.8   -4.8   -3.0
H    -1.2   -1.8    5.9
H     2.8    2.0   -5.3
I    -5.2   -3.6   -0.3
C    -0.3   -1.3    6.2
N     2.0    0.2   -6.1
H    -3.7   -4.2   -3.3
H    -3.7    1.7   -5.1
H     4.7    0.0    4.6
H     1.4    5.5   -3.4
I     4.7    3.7   -2.9
H    -1.9    5.4   -3.4
H     0.5   -5.4    4.2
H    -1.1   -5.4    4.2
H    -5.2    0.0    4.6
H     3.8    4.2    4.1
H     1.4    0.7   -6.8
I    -5.2    3.7   -2.9
H     3.8    0.7    5.9
H     3.0    5.5   -3.4
H    -2.8    1.1   -6.5
H     2.9   -0.1   -6.5
I     2.2    2.4    6.4
H     3.7   -1.8    5.9
I     7.1    0.2   -1.3
H    -4.3    4.2    4.1
N     4.7    0.1    5.6
H    -3.6    5.4   -3.4
H     4.7    5.0    2.7
I    -2.8    2.4    6.4
N     2.2   -6.0   -3.7
H    -4.4    0.6    5.9
N     2.2    6.0   -3.7
H    -0.3   -1.1    7.3
N    -0.3   -6.0    4.5
H     1.3   -6.6   -3.4
P     7.1   -2.1    1.0
N    -2.7    6.0   -3.7
N    -0.2    6.1    4.5
H    -4.4   -1.8    5.9
H    -0.3   -7.1    2.7
N    -2.8   -6.1   -3.7
N    -5.2    0.1    5.6
H    -5.2    5.0    2.7
C     4.7    4.8    3.8
I     4.6   -2.4   -5.7
H    -2.0   -6.7   -3.4
I    -7.7    0.2   -1.3
H     3.8   -5.4    4.2
H    -2.7    7.1   -1.9
C     4.6   -1.3    6.2
H     0.6    6.7    4.2
H     2.2    7.3   -2.0
H     2.2   -6.0   -4.7
H    -1.1    6.7    4.2
H     3.0   -6.6   -3.4
H     2.2    6.1   -4.7
C    -5.2    4.8    3.8
H     7.1   -0.1   -3.7
P    -7.7   -2.1    1.0
H     5.5    0.6    5.9
I     7.2    3.6    1.1
H     6.3   -0.7   -5.1
H     5.6    4.2    4.1
H    -2.8   -6.0   -4.7
I    -5.3   -2.4   -5.7
H    -2.7    6.1   -4.7
H    -4.4   -5.4    4.2
H    -0.2    6.0    5.5
H    -7.0    0.5   -4.2
H    -0.3   -6.1    5.5
H     6.2   -4.2   -3.3
C    -0.3   -7.3    3.8
H     6.2    1.7   -5.1
C    -5.2   -1.3    6.2
H    -3.6   -6.7   -3.4
H     5.5   -1.8    5.9
C     2.2    7.4   -3.1
C    -2.7    7.3   -3.0
I    -0.3    8.4   -0.3
I    -0.2    2.2   -8.1
H    -6.1    0.7    5.9
H    -6.1    4.2    4.1
N     7.1   -0.2   -4.8
I    -7.7    3.6    1.2
H    -6.8   -4.1   -3.4
H    -1.8    7.8   -3.3
H    -6.1   -1.8    5.9
H     4.6   -1.1    7.3
H     1.3    7.9   -3.4
H     5.5   -5.4    4.2
I     2.2   -8.4    1.2
N     4.7   -6.0    4.5
H     3.9    6.7    4.2
I     7.1   -3.6    3.8
H     0.6   -7.8    4.1
H     7.1   -4.9   -1.9
I    -0.3   -8.4   -2.9
N     4.7    6.1    4.5
H    -1.2   -7.8    4.1
H     4.7   -7.1    2.7
I    -2.8   -8.4    1.1
H     6.3    5.4   -3.4
C     7.1    1.2   -5.4
H    -4.4    6.7    4.2
H    -7.1    2.0   -5.3
C     7.1   -4.8   -3.0
H    -5.3   -1.1    7.3
N    -5.2   -6.0    4.5
C    -7.6    1.1   -4.9
H    -6.1   -5.4    4.2
N    -5.2    6.1    4.5
H     3.1    7.9   -3.4
H    -5.2   -7.1    2.7
P    -0.3   -4.0   -8.3
H    -3.6    7.9   -3.3
H    -7.7   -4.7   -2.0
I    -7.7   -3.6    3.7
H     4.7    6.0    5.5
H    -6.9    5.5   -3.4
H     4.6   -6.1    5.5
C     4.7   -7.3    3.8
H     7.9   -0.7   -5.1
I     2.2    8.4    3.7
I     2.2   -2.4    8.9
C    -7.7   -4.6   -3.1
H    -7.0   -0.1   -6.5
H     3.8   -7.8    4.1
I     2.2   -6.0   -7.2
I    -2.7    8.4    3.8
H     8.0    1.7   -5.0
H     5.5    6.7    4.2
H     8.0   -4.2   -3.3
I     4.7    8.4   -0.3
I     4.7    2.2   -8.2
H    -5.2    6.0    5.5
I    -2.8   -2.3    9.0
I     2.2    6.1   -7.2
H     7.1    1.1   -6.5
C    -5.2   -7.3    3.8
H    -5.3   -6.1    5.5
H    -8.6    1.4   -4.5
I    -2.8   -6.0   -7.2
H     6.3   -6.7   -3.4
I    -2.7    6.1   -7.2
I     9.6   -0.2    2.1
H    -4.3   -7.8    4.1
P     9.6    2.1   -0.2
I     7.1    2.4    6.4
I    -5.2    8.4   -0.3
I    -0.3    5.9    8.0
P    -0.3   -9.9   -0.2
I    -5.2    2.2   -8.2
H    -6.0    6.7    4.2
N    -7.9    0.2   -6.1
I     4.6   -8.4   -2.9
N     7.2    6.0   -3.7
N     7.1   -6.1   -3.7
I    -0.3   -6.2    8.0
H    -6.9   -6.6   -3.4
H    -8.6   -4.1   -3.4
P     2.2    3.9    9.1
I     2.2   -2.5   -9.6
H     8.0    5.4   -3.4
P     2.2    9.9    1.0
H    -8.4   -0.7   -5.8
I     9.6   -3.6   -0.3
P    -2.7    4.0    9.1
H     7.2    7.1   -1.9
I    -7.7    2.4    6.4
I    -5.3   -8.4   -2.9
P    -2.7    9.9    1.0
P     4.7   -4.0   -8.3
P   -10.2    2.1   -0.2
I    -2.7   -2.6   -9.7
I   -10.2   -0.2    2.1
H     7.1   -6.0   -4.7
H     5.5   -7.8    4.1
N    -7.7    6.0   -3.7
N    -7.7   -6.0   -3.7
P     2.3    3.8   -9.5
H     7.2    6.1   -4.7
H     8.7    4.2    4.1
P    -2.7    3.7   -9.5
H     6.3    7.9   -3.3
H     8.8    0.7    5.9
P    -5.2   -4.0   -8.3
H     9.6    0.0    4.6
C     7.2    7.3   -3.0
H    -8.5    5.5   -3.4
H     8.7   -1.8    5.9
I     9.6    3.7   -2.9
I    -0.3    2.4   10.5
H    -6.1   -7.8    4.1
H    -7.7    7.3   -2.0
I   -10.2   -3.6   -0.3
H    -7.7   -6.0   -4.7
H    -7.7    6.1   -4.7
H    -8.5    0.7   -6.8
H     7.9   -6.7   -3.4
P     4.6   -9.9   -0.2
H    -9.3    4.2    4.1
I     4.7    5.9    8.0
P    -0.3   -3.8   10.3
H    -6.8    7.9   -3.4
H    -9.4    0.6    5.9
I     7.1   -8.4    1.1
C    -7.7    7.4   -3.1
N     9.6    0.1    5.6
I    -0.2    9.6   -5.6
H     8.8   -5.4    4.2
I     4.6   -6.2    8.0
H   -10.2    0.0    4.6
H     9.6    5.0    2.7
H    -9.3   -1.8    5.9
I   -10.2    3.7   -2.9
I    -5.2    5.9    8.0
P    -5.3   -9.9   -0.2
H    -8.6   -6.6   -3.4
H    -0.3   -1.3  -11.3
C     9.6    4.8    3.8
I     9.6   -2.5   -5.6
I    -5.3   -6.2    8.0
I    -7.7   -8.4    1.2
C     9.6   -1.3    6.2
P    -0.3    8.0   -8.3
H    -9.4   -5.4    4.2
N   -10.2    0.1    5.6
H   -10.2    5.0    2.7
H     1.3  -10.7   -4.5
H    -1.9  -10.3   -5.0
I     7.1   -2.3    9.0
I     7.2    8.4    3.8
H     8.1    7.8   -3.3
H     2.8  -10.1   -5.3
I     4.7    2.4   10.5
I     7.1   -6.0   -7.2
I     2.2   -9.7    6.4
I     7.2    6.1   -7.2
C   -10.2    4.8    3.8
H     8.8    6.7    4.2
H     0.6   10.3    5.9
I   -10.2   -2.5   -5.6
H    -1.2   10.3    5.9
I    -2.8   -9.7    6.4
I    -5.2    2.4   10.5
P     4.6   -3.9   10.3
I    -7.7    8.4    3.7
H    10.4    0.6    5.9
C   -10.2   -1.3    6.2
I    -0.2    5.7  -10.6
I    -7.7   -2.4    8.9
H    10.5    4.2    4.1
H    -3.7  -10.3   -5.1
I    -0.2   11.9    2.1
I    -7.7   -6.0   -7.2
H     9.6   -1.1    7.3
I     2.2  -11.9   -1.3
I    -7.7    6.1   -7.2
I    12.1    0.2   -1.3
N     9.6   -6.0    4.5
H    11.2    1.4   -4.5
I     4.7    9.7   -5.7
H    -8.6    7.9   -3.4
H    10.5   -1.8    5.9
P    -5.3   -3.9   10.3
H    -9.3    6.7    4.2
H     9.6   -7.1    2.7
P     7.2    4.0    9.1
C     2.2  -11.0   -4.9
N     9.7    6.1    4.5
H    -2.1    0.0   12.1
I    -2.8  -11.9   -1.3
P     7.2    9.9    1.0
H     4.7   -1.3  -11.3
P    12.1   -2.1    1.0
I     7.2   -2.6   -9.7
H    -3.6    0.9   11.8
I    -0.3   -6.4  -10.6
H     8.7   -7.8    4.1
H    11.2   -4.1   -3.4
I    -5.2    9.7   -5.7
H     2.2    1.3   12.2
I    -0.3  -12.2    2.1
H     3.8   10.3    5.9
C    -2.8  -10.9   -5.4
P     2.2   -8.2    9.1
C    -0.3   10.8    6.2
P     7.2    3.7   -9.5
C    -0.3   -1.4  -12.4
H    10.4   -5.4    4.2
H   -11.0    0.7    5.9
P    -2.8   -8.1    9.1
P     4.7    8.0   -8.3
H    -5.2   -1.3  -11.3
I     2.2   12.2   -1.3
H   -11.1    4.2    4.1
H    -1.9   11.3   -5.1
P    -7.7    3.9    9.1
P    -7.7    9.9    1.0
I    -2.7   12.2   -1.3
H    -4.3   10.2    5.9
I    -7.7   -2.5   -9.6
H   -10.2   -1.1    7.3
H     2.8  -11.5   -4.2
N   -10.2   -6.0    4.5
I     2.2    2.2  -12.2
C     9.6   -7.3    3.8
H     9.7    6.0    5.5
H     9.6   -6.1    5.5
N   -10.1    6.1    4.5
I    12.1    3.6    1.2
P    -5.2    8.0   -8.3
I    -2.7    2.2  -12.2
H   -11.1   -1.8    5.9
I   -12.6    0.2   -1.3
H   -10.2   -7.1    2.7
H     0.6    0.5  -12.7
H    11.4   -0.7   -5.8
I    -0.2   -9.8   -8.1
P    -7.6    3.8   -9.5
H    -1.1    0.5  -12.7
I     9.6    8.4   -0.3
P     2.2   -8.3   -9.5
H    -2.7   12.0   -3.7
H    -9.3   -7.8    4.1
H     0.5  -11.4    5.9
I     9.7    2.2   -8.1
P   -12.7   -2.1    1.0
H     0.6   -2.0  -12.7
N    -3.0    0.4   12.5
H    -1.1  -11.4    5.9
H     1.5   11.4   -5.8
H    -0.3  -12.1    4.6
H   -11.9   -0.7   -5.1
H   -11.8    1.7   -5.0
H    -0.2   12.1    4.6
H   -11.8   -4.2   -3.3
H    -1.2   -2.0  -12.7
P    -2.7   -8.3   -9.5
H    -3.6   11.3   -5.1
H   -11.0   -5.4    4.2
I     4.7    5.7  -10.6
I     4.7   11.9    2.1
H    11.3    5.5   -3.4
H   -10.1    6.0    5.5
I     2.1   -5.8   11.4
N    -0.2   -0.1  -13.0
H    -2.8  -12.2   -3.7
H    -2.8  -11.0   -6.5
H     6.2  -10.3   -5.1
H   -10.2   -6.1    5.5
I     9.6   -8.4   -2.9
H     5.6   10.2    5.9
C   -10.2   -7.3    3.8
I    -0.4   -2.2   12.9
I    -2.8   -5.8   11.4
