         400
 sphere cut out from bulk 
H    -0.5   -0.4   -0.3
C     0.0   -0.3   -1.2
H     1.0   -0.6   -1.1
N     0.0    1.2   -1.6
H     0.5    1.7   -0.9
H    -0.5   -0.8   -2.0
H    -1.0    1.5   -1.7
H     0.5    1.3   -2.5
H     0.5    1.0    2.7
I    -1.6   -2.5    1.6
H    -0.5   -1.1    3.3
I     1.6    3.1    0.8
C     0.0    0.9    3.6
H    -1.0    1.3    3.5
I     2.6   -2.9   -0.2
N     0.0   -0.5    4.0
H     1.0   -0.9    4.1
I    -3.2    2.4   -2.0
H     0.5    1.5    4.4
I    -1.1   -3.7   -2.8
H    -3.8   -0.5   -2.8
P     0.0   -4.9    0.0
H     3.3   -0.7   -3.7
H    -0.5   -0.6    4.9
I    -2.6    3.6    2.6
H     3.8   -2.6   -2.3
I     1.7    1.6   -4.6
H    -3.3   -2.8   -3.1
H     4.8   -0.5   -2.8
C    -4.3   -1.0   -3.6
C     4.3   -1.0   -3.6
I     3.2   -1.7    4.4
N    -4.3   -2.5   -3.2
N     4.3   -2.5   -3.2
H    -4.8   -2.6   -2.3
H    -3.8   -0.9   -4.5
P     0.0    5.5    2.4
I     5.4    2.4   -2.0
H     3.8   -3.0   -3.9
P    -4.3    4.6    0.0
P    -4.3   -3.9    2.4
P     4.3    4.6    0.0
P     4.3   -3.9    2.4
H    -5.3   -0.7   -3.7
H     3.8    1.1    5.2
I     1.7   -5.9    2.6
I    -6.0   -2.9   -0.2
H     4.8   -0.9   -4.5
I    -1.7    6.5   -0.2
H     5.3   -2.8   -3.1
I     1.1    4.3    5.2
H    -3.8    3.3    4.7
H    -4.8   -3.0   -3.9
I    -2.7   -6.4    0.8
H    -3.3    1.3    6.1
I    -2.7    1.2   -6.4
I    -5.4   -1.7    4.4
H    -4.8    1.1    5.2
I     3.2    5.8   -2.8
H    -0.5    6.9   -2.3
I    -1.7   -1.0    7.0
H     3.3    3.5    5.5
P    -4.3    3.6   -4.8
H     1.0    6.7   -3.1
P     4.3    3.6   -4.8
I     6.0    3.6    2.6
H     4.8    3.3    4.7
I     1.1   -7.1   -2.0
H    -0.5    6.4   -3.9
C    -4.3    1.7    6.0
C     4.3    1.7    6.0
P     0.0    2.6   -7.2
P     0.0   -5.9   -4.8
I     7.1   -2.5    1.6
I     2.7   -4.4   -5.6
H    -7.6   -0.6   -1.1
I     2.7    7.0    1.6
I    -1.6    5.1   -5.6
N    -4.3    3.1    5.6
N     0.0    7.0   -3.2
N     4.3    3.1    5.6
I    -7.0    3.1    0.8
H     0.5   -6.2    4.7
H     7.6    1.5   -1.7
I    -3.2   -5.2    5.2
H     3.8    1.6    6.9
H     8.1   -0.4   -0.3
H     5.3    1.3    6.1
H    -1.0   -6.0    5.5
H    -3.8    3.7    6.3
H    -8.1    1.7   -0.9
H     8.1   -0.8   -2.0
H    -5.3    3.5    5.5
I    -5.4    5.8   -2.8
H     7.6    1.3    3.5
N     0.0   -6.4    5.6
I    -6.9    1.6   -4.6
H     0.5   -5.8    6.3
H    -8.1    1.0    2.7
H    -4.8    1.6    6.9
H    -8.1    1.3   -2.5
H    -3.8   -7.7   -0.9
H     3.8   -2.3   -7.5
C    -8.6   -0.3   -1.2
I     5.9   -6.4    0.8
H    -7.6   -0.9    4.1
C     8.6   -0.3   -1.2
H     4.8    3.7    6.3
I     5.9    1.2   -6.4
H     3.3   -8.0   -1.7
N    -8.6    1.2   -1.6
H     8.1   -1.1    3.3
N     8.6    1.2   -1.6
I     7.6   -3.7   -2.8
P    -4.3   -2.9    7.2
P     4.3   -2.9    7.2
H    -3.8   -0.2   -8.1
I    -1.1    7.8    4.4
I    -1.7   -4.9   -7.4
I     2.6    4.6   -7.4
I     5.4   -5.2    5.2
H    -9.1   -0.4   -0.3
H     4.8   -7.7   -0.9
H    -4.8   -2.3   -7.5
C     0.0    8.5   -3.6
I     2.7   -0.5    8.8
I    -5.9   -4.4   -5.6
I     1.1    0.4   -9.2
I     1.6   -4.4    8.0
I    -5.9    7.0    1.6
H    -3.3   -2.6   -8.3
H    -8.1    1.5    4.4
H     9.1    1.7   -0.9
H    -3.8   -8.2   -2.5
C    -8.6    0.9    3.6
H    -9.1   -0.8   -2.0
C     8.6    0.9    3.6
H     4.8   -0.2   -8.1
I    -6.9   -5.9    2.6
H     0.5    9.0   -2.8
I    -2.6   -7.8   -4.6
N    -8.6   -0.5    4.0
N    -4.3   -8.3   -1.6
H     3.3   -0.4   -8.9
N     4.3   -8.3   -1.6
N     8.6   -0.5    4.0
H    -3.3    8.9   -1.1
H     3.3   -8.2    3.5
H     8.1   -0.6    4.9
H     9.1    1.3   -2.5
I     6.9    6.5   -0.2
H     9.1    1.0    2.7
H    -1.0    8.8   -3.7
H     3.8    8.6   -2.0
H    -3.8   -8.5    2.7
H    -5.3   -8.0   -1.7
H     0.5    8.6   -4.5
C    -4.3   -2.2   -8.4
C     4.3   -2.2   -8.4
H    -9.1   -1.1    3.3
H     9.7   -0.6   -1.1
P     0.0    6.5    7.2
P     0.0   -2.0    9.6
H     3.8    8.4    3.3
H     4.8   -8.2   -2.5
N    -4.3   -0.8   -8.8
N     4.3   -0.8   -8.8
C     0.0   -7.8    6.0
H    -9.6    1.5   -1.7
I    -2.7    5.1    8.0
H    -3.8   -8.0    4.4
H    -0.5   -8.4    5.2
H     3.8    9.1   -0.3
P    -8.6   -4.9    0.0
P     8.6   -4.9    0.0
I     6.9   -1.0    7.0
H     4.8   -8.5    2.7
H    -4.8    8.6   -2.0
H    -3.3    8.6    4.1
I    -7.5    4.3    5.2
H     1.0   -8.1    6.1
H    -4.8    8.4    3.3
H     5.3   -2.6   -8.3
C    -4.3    9.2   -1.2
C    -4.3   -8.6    3.6
C     4.3    9.2   -1.2
C     4.3   -8.6    3.6
H     9.2    1.5    4.4
H    -4.8    9.1   -0.3
H     0.5   -2.4  -10.0
H     4.8   -8.0    4.4
H     3.8   -2.8   -9.2
I     7.1    5.1   -5.6
H    -0.5    7.2   -7.5
H    -9.6    1.3    3.5
H     0.5   -9.9   -2.8
H    -5.3   -0.4   -8.9
H    -9.1   -0.6    4.9
H    -5.3   -8.2    3.5
H     5.3    8.9   -1.1
H    -3.8   -0.7   -9.7
H     9.6   -0.9    4.1
P    -8.6    5.5    2.4
P     8.6    5.5    2.4
H    -0.5   -4.6   -9.5
H    -0.5   -7.9    6.9
I    -6.0    4.6   -7.4
I    -7.5   -7.1   -2.0
H     3.8   -9.9   -0.3
I    -5.9   -0.5    8.8
I   -10.2   -2.5    1.6
H    -7.6    6.7   -3.1
I     1.6   -8.3   -6.4
H    -3.3  -10.1   -1.1
I    10.2    3.1    0.8
I    -9.7   -3.7   -2.8
N    -4.3    9.0    4.0
N     4.3    9.0    4.0
C    -4.3   -9.8   -1.2
C     4.3   -9.8   -1.2
H    -4.8   -2.8   -9.2
I    -1.1    3.9  -10.0
P    -4.3   -6.9   -7.2
P     4.3   -6.9   -7.2
H     3.8    8.8    4.9
H     4.8   -0.7   -9.7
H    -1.0  -10.2   -3.7
I    -2.6   -3.9    9.8
H     1.0    6.9   -8.3
I     6.0   -7.8   -4.6
H     8.1    6.9   -2.3
H     5.3    8.6    4.1
H    -3.8    3.0    9.9
H    -4.8   -9.9   -0.3
H     8.1    6.4   -3.9
C     0.0    7.3   -8.4
C     0.0  -10.5   -3.6
I     5.9    5.1    8.0
H     7.6   -6.0    5.5
H     3.8  -10.3   -2.0
H    -4.8    8.8    4.9
C     0.0   -3.0  -10.8
H     3.8    0.9   10.5
H    -1.0   -2.6  -10.9
H    -8.1   -6.2    4.7
I     6.9   -4.9   -7.4
N     0.0   -4.4  -10.4
I     2.6    8.5    7.0
H     3.8    4.9   -9.5
H     4.8    3.0    9.9
H    -0.5    6.7   -9.2
H     0.5  -10.4   -4.5
I     1.7    5.6    9.8
I    10.3    1.6   -4.6
H     1.0   -4.8  -10.3
H     5.3  -10.1   -1.1
H    -3.8   10.5    2.7
P    -8.6    2.6   -7.2
P    -8.6   -5.9   -4.8
P     8.6   -5.9   -4.8
P     8.6    2.6   -7.2
I    -7.0   -4.4    8.0
N    -8.6    7.0   -3.2
H    -4.8    0.9   10.5
N     8.6    7.0   -3.2
H    -4.8  -10.3   -2.0
N    -4.3   10.6   -1.6
N    -4.3  -10.0    4.0
N     4.3   10.6   -1.6
N     4.3  -10.0    4.0
H    -3.3  -10.4    4.1
H    -9.1    6.9   -2.3
H     3.3   11.0   -1.7
I    11.3   -2.9   -0.2
I    -1.1    0.3   11.6
H     3.3    3.2   10.7
I     7.6    7.8    4.4
H    -4.8    4.9   -9.5
H    -3.8   10.8   -2.5
H     3.8  -10.6    3.3
H     3.3   10.8    3.5
H    -8.1   -5.8    6.3
H    -3.3    4.7  -10.3
H    -9.1    6.4   -3.9
H     0.5   -6.5    9.9
I     9.7    4.3    5.2
H    -0.5   10.6    5.2
H    -3.3    1.1   11.3
C    -4.3   10.4    3.6
C     4.3   10.4    3.6
H     4.8   10.5    2.7
H    -3.8   11.2   -0.9
I    -7.5    0.4   -9.2
H     3.8  -10.1    4.9
I     3.2   -5.6  -10.0
H     9.1   -6.2    4.7
C    -4.3    2.9   10.8
C     4.3    2.9   10.8
I     1.1   11.8   -2.0
I    -1.1  -11.2    4.4
H     4.8   10.8   -2.5
H    -4.8  -10.6    3.3
H     9.6    6.7   -3.1
N    -8.6   -6.4    5.6
N    -4.3    1.5   11.2
I   -11.2    3.6    2.6
N     4.3    1.5   11.2
N     8.6   -6.4    5.6
I    -2.6   -0.3  -11.8
H     0.5   -2.9  -11.7
I     6.0   -3.9    9.8
I    10.3   -5.9    2.6
P     0.0    1.6  -12.0
H     7.6    8.8   -3.7
I   -10.3    6.5   -0.2
H    -0.5   -5.0  -11.1
I     9.7   -7.1   -2.0
H    -4.8  -10.1    4.9
I   -11.8    2.4   -2.0
H     4.8   11.2   -0.9
H    -0.5  -12.1   -2.3
H     0.5    9.3   -8.1
I    -2.6   11.1   -4.6
H    -5.3   11.0   -1.7
H     5.3  -10.4    4.1
N    -4.3    5.1  -10.4
N     4.3    5.1  -10.4
I     2.7  -11.9    1.6
N     0.0    8.7   -8.8
N     0.0  -11.9   -3.2
H    -3.8   11.0    4.4
H    -5.3    3.2   10.7
H    -8.1    9.0   -2.8
H     1.0   10.8    6.1
H    11.9   -0.7   -3.7
H    -1.0   -6.3   10.7
I   -10.3   -1.0    7.0
H     5.3    4.7  -10.3
H     9.1   -5.8    6.3
H    -5.3   10.8    3.5
I     1.6   10.6   -6.4
H     5.3    1.1   11.3
I    -6.0    8.5    7.0
I    -1.7  -12.4   -0.2
H     3.8    4.5  -11.1
H    -9.6   -6.0    5.5
C    -8.6    8.5   -3.6
C     8.6    8.5   -3.6
H    -8.1    8.6   -4.5
H     0.5   -9.7   -8.1
I    -7.0   -8.3   -6.4
H   -11.9   -2.8   -3.1
H    -3.8    3.5   11.6
H    -7.6   -8.1    6.1
C     0.0   11.2    6.0
C     0.0   -6.6   10.8
I    -1.6    9.0    8.8
I    -5.4   -5.6  -10.0
I   -10.2    5.1   -5.6
H   -12.4   -0.5   -2.8
H    -1.0    9.1   -8.9
H     1.0  -12.3   -3.1
I    11.9   -1.7    4.4
H     8.1   -8.4    5.2
H     4.8   11.0    4.4
H     3.8    1.3   12.1
H    -0.5    3.1   12.4
H    -3.8    7.1  -10.0
I     1.1   -3.2   12.4
I     2.6  -10.5    7.0
P    -4.3    7.5    9.6
P     4.3    7.5    9.6
H    -4.8    4.5  -11.1
I    -2.7   12.6    0.8
H    12.4   -2.6   -2.3
H     0.5    5.2   11.9
P    -8.6    6.5    7.2
P    -8.6   -2.0    9.6
H     4.8    3.5   11.6
P     8.6   -2.0    9.6
P     8.6    6.5    7.2
I   -11.4   -6.4    0.8
H     0.5   -6.0   11.6
C    -8.6   -7.8    6.0
H    -0.5   11.1    6.9
C     8.6   -7.8    6.0
I   -11.4    1.2   -6.4
H    -4.8    1.3   12.1
H    -8.1   -2.4  -10.0
I     7.6    3.9  -10.0
H    -8.1   -9.9   -2.8
H     8.1    7.2   -7.5
H    -0.5  -12.5   -3.9
H     0.5    8.8   -9.7
H     9.2    9.0   -2.8
I    -9.7    7.8    4.4
H     4.8    7.1  -10.0
H    -3.8   -4.3   11.9
H     7.6  -10.2   -3.7
H    -7.6    6.9   -8.3
