         400
 sphere cut out from bulk 
I    -0.0   -1.7    0.1
H     2.3   -0.4    0.2
H    -2.3   -0.4    0.2
H     2.2    1.9    0.9
H    -2.2    1.9    0.9
N     3.1    0.2    0.1
N    -3.1    0.2    0.1
H     3.1    0.6   -0.9
H    -3.1    0.6   -0.9
H    -0.0   -2.6   -2.2
C     3.1    1.3    1.1
C    -3.1    1.3    1.1
I    -0.0    1.3    3.4
H     3.1    0.9    2.1
H    -3.1    0.9    2.1
P    -0.0   -1.9    3.5
H     4.0   -0.4    0.2
H    -4.0   -0.4    0.2
H     0.8    2.8   -3.2
H    -0.8    2.8   -3.2
N    -0.0   -3.1   -3.1
H    -0.0    3.8   -2.2
H     0.9   -1.4   -4.1
H    -0.9   -1.4   -4.1
H     4.0    1.9    0.9
H    -4.0    1.9    0.9
N    -0.0    3.4   -3.1
C    -0.0   -2.0   -4.2
I     3.1    1.6   -3.1
I    -3.1    1.6   -3.1
I    -0.0    4.8    0.1
I     3.1   -1.9    3.3
H     0.8   -3.7   -3.2
I    -3.1   -1.9    3.3
H    -0.8   -3.7   -3.2
H     2.2   -4.5    0.9
H    -2.2   -4.5    0.9
P    -0.0    4.6    3.5
H    -0.0   -2.5   -5.2
C    -0.0    4.4   -4.2
C     3.1   -5.1    1.1
C    -3.1   -5.1    1.1
I    -0.0   -5.1    3.4
H     4.0   -4.5    0.9
H    -4.0   -4.5    0.9
I    -0.0    1.1   -6.1
H     2.2    1.9    5.7
H    -2.2    1.9    5.7
I     3.1    4.5    3.3
I    -3.1    4.5    3.3
H     2.3    6.1    0.2
H    -2.3    6.1    0.2
H    -0.0    3.9   -5.2
I     6.3   -1.7    0.1
I    -6.3   -1.7    0.1
H     0.9    5.1   -4.1
H    -0.9    5.1   -4.1
I     3.1   -4.9   -3.1
I    -3.1   -4.9   -3.1
H     3.1   -5.6    2.1
H    -3.1   -5.6    2.1
H     3.1    0.3    5.9
H    -3.1    0.3    5.9
H     3.1   -5.9   -0.9
H    -3.1   -5.9   -0.9
I    -0.0   -1.9    6.6
H     5.4   -1.4   -4.1
H    -5.4   -1.4   -4.1
H     5.4    2.8   -3.2
H    -5.4    2.8   -3.2
C     3.1    1.4    6.1
C    -3.1    1.4    6.1
N     3.1   -6.3    0.1
N    -3.1   -6.3    0.1
H     6.3   -2.6   -2.2
H    -6.3   -2.6   -2.2
H     4.0    1.9    5.7
H    -4.0    1.9    5.7
H     2.3   -6.9    0.2
H    -2.3   -6.9    0.2
I     6.3    1.3    3.4
I    -6.3    1.3    3.4
H     4.0    6.1    0.2
H    -4.0    6.1    0.2
P     3.1    1.2   -6.5
P    -3.1    1.2   -6.5
H     5.4   -3.7   -3.2
H    -5.4   -3.7   -3.2
N     3.1    6.7    0.1
N    -3.1    6.7    0.1
P     6.3   -1.9    3.5
P    -6.3   -1.9    3.5
H     2.2   -4.6    5.7
H    -2.2   -4.6    5.7
N     6.3   -3.1   -3.1
N    -6.3   -3.1   -3.1
H     6.3    3.8   -2.2
H    -6.3    3.8   -2.2
I     3.1   -2.0   -6.7
I    -3.1   -2.0   -6.7
H     3.1    7.0   -0.9
H    -3.1    7.0   -0.9
N     6.3    3.4   -3.1
N    -6.3    3.4   -3.1
C     6.3   -2.0   -4.2
C    -6.3   -2.0   -4.2
I     6.3    4.8    0.1
I    -6.3    4.8    0.1
H     4.0   -6.9    0.2
H    -4.0   -6.9    0.2
I    -0.0    4.6    6.6
I    -0.0   -8.1    0.1
I    -0.0   -5.3   -6.1
H     3.1    7.4    2.1
H    -3.1    7.4    2.1
H     7.1    2.8   -3.2
H    -7.1    2.8   -3.2
H     4.0   -4.6    5.7
H    -4.0   -4.6    5.7
N     3.1    1.7    7.6
N    -3.1    1.7    7.6
H     7.2   -1.4   -4.1
H    -7.2   -1.4   -4.1
H     5.4    5.1   -4.1
H    -5.4    5.1   -4.1
H     2.3    1.3    8.0
H    -2.3    1.3    8.0
C     3.1    7.8    1.1
C    -3.1    7.8    1.1
P     6.3    4.6    3.5
I    -0.0    7.8    3.4
P    -6.3    4.6    3.5
C     3.1   -5.0    6.1
C    -3.1   -5.0    6.1
H     6.3   -2.5   -5.2
H    -6.3   -2.5   -5.2
H     8.6   -0.4    0.2
H    -8.6   -0.4    0.2
H     7.1   -3.7   -3.2
H    -7.1   -3.7   -3.2
I     3.1    4.4   -6.7
I    -3.1    4.4   -6.7
H     2.2    8.4    0.9
H    -2.2    8.4    0.9
C     6.3    4.4   -4.2
C    -6.3    4.4   -4.2
I     6.3   -5.1    3.4
I    -6.3   -5.1    3.4
H     8.5    1.9    0.9
H    -8.5    1.9    0.9
H     3.1    2.7    7.8
H    -3.1    2.7    7.8
I     6.3    1.1   -6.1
I    -6.3    1.1   -6.1
P     3.1   -5.3   -6.5
P    -3.1   -5.3   -6.5
H     0.9   -7.9   -4.1
H    -0.9   -7.9   -4.1
H     6.3    3.9   -5.2
H    -6.3    3.9   -5.2
P    -0.0   -8.4    3.5
H     4.0    1.3    8.0
H    -4.0    1.3    8.0
H     3.1   -6.1    5.9
H    -3.1   -6.1    5.9
H     3.1   -3.8    7.8
H    -3.1   -3.8    7.8
I     3.1    8.1   -3.1
I    -3.1    8.1   -3.1
I     6.3   -1.9    6.6
I    -6.3   -1.9    6.6
H     4.0    8.4    0.9
H    -4.0    8.4    0.9
H    -0.0   -9.1   -2.2
N     9.4    0.2    0.1
N    -9.4    0.2    0.1
C    -0.0   -8.5   -4.2
N     3.1   -4.8    7.6
N    -3.1   -4.8    7.6
H     9.4    0.6   -0.9
H    -9.4    0.6   -0.9
I     3.1   -8.4    3.3
I    -3.1   -8.4    3.3
H     3.1    6.8    5.9
H    -3.1    6.8    5.9
C     9.4    1.3    1.1
C    -9.4    1.3    1.1
H     7.2    5.1   -4.1
H    -7.2    5.1   -4.1
H     9.4    0.9    2.1
H    -9.4    0.9    2.1
H     8.5   -4.5    0.9
H    -8.5   -4.5    0.9
I    -0.0    7.6   -6.1
I    -0.0    1.4    9.7
H     2.3   -5.2    8.0
H    -2.3   -5.2    8.0
H     0.8    9.3   -3.2
H    -0.8    9.3   -3.2
P    -0.0   -1.9    9.8
N    -0.0   -9.5   -3.1
I     9.4    1.6   -3.1
I    -9.4    1.6   -3.1
I     9.4   -1.9    3.3
I    -9.4   -1.9    3.3
I     6.3    4.6    6.6
I    -6.3    4.6    6.6
I     6.3   -8.1    0.1
I    -6.3   -8.1    0.1
I     6.3   -5.3   -6.1
I    -6.3   -5.3   -6.1
H    10.3   -0.4    0.2
H   -10.3   -0.4    0.2
I     3.1    1.2   -9.7
I    -3.1    1.2   -9.7
H     2.2    8.3    5.7
H    -2.2    8.3    5.7
H     4.0   -5.2    8.0
N    -0.0    9.9   -3.1
H    -4.0   -5.2    8.0
H    -0.0   -9.0   -5.2
H     5.4   -7.9   -4.1
H    -5.4   -7.9   -4.1
H     8.5    1.9    5.7
H    -8.5    1.9    5.7
I     3.1   -1.8    9.8
I    -3.1   -1.8    9.8
C     3.1    7.9    6.1
C    -3.1    7.9    6.1
P     3.1    7.7   -6.5
P    -3.1    7.7   -6.5
H    -0.0   10.3   -2.2
H     8.6    6.1    0.2
H    -8.6    6.1    0.2
H    10.3    1.9    0.9
H   -10.3    1.9    0.9
I    -0.0   -2.1  -10.4
I     6.3    7.8    3.4
I    -6.3    7.8    3.4
I    -0.0   -8.4    6.6
H     0.8  -10.1   -3.2
H    -0.8  -10.1   -3.2
P     3.1   -2.0  -10.0
P    -3.1   -2.0  -10.0
C     9.4   -5.1    1.1
C    -9.4   -5.1    1.1
P    -0.0    4.6    9.8
H     4.0    8.3    5.7
H    -4.0    8.3    5.7
I    -0.0   -5.1    9.7
I     9.4    4.5    3.3
I    -9.4    4.5    3.3
H     8.6   -6.9    0.2
H    -8.6   -6.9    0.2
P     6.3   -8.4    3.5
P    -6.3   -8.4    3.5
I     9.4   -4.9   -3.1
I    -9.4   -4.9   -3.1
H     9.4   -5.6    2.1
H     9.4    0.3    5.9
H    -9.4   -5.6    2.1
H    -9.4    0.3    5.9
H     9.4   -5.9   -0.9
H    -9.4   -5.9   -0.9
H     5.4    9.3   -3.2
H    -5.4    9.3   -3.2
H     8.5   -4.6    5.7
H    -8.5   -4.6    5.7
I    -0.0    4.4  -10.4
H     2.2  -11.0    0.9
H    -2.2  -11.0    0.9
I    -0.0   11.3    0.1
H     6.3   -9.1   -2.2
I     3.1    4.7    9.8
H    -6.3   -9.1   -2.2
I    -3.1    4.7    9.8
I     3.1   -8.5   -6.7
I    -3.1   -8.5   -6.7
C     9.4    1.4    6.1
H    10.3   -4.5    0.9
C    -9.4    1.4    6.1
N     9.4   -6.3    0.1
H   -10.3   -4.5    0.9
N    -9.4   -6.3    0.1
C     6.3   -8.5   -4.2
C    -6.3   -8.5   -4.2
P     3.1    4.4  -10.0
P    -3.1    4.4  -10.0
H     2.3    7.8    8.0
H    -2.3    7.8    8.0
H     7.2   -7.9   -4.1
H    -7.2   -7.9   -4.1
H    -0.0    0.9  -11.4
P     9.4    1.2   -6.5
P    -9.4    1.2   -6.5
I     3.1   -5.3   -9.7
I    -3.1   -5.3   -9.7
N     9.4    6.7    0.1
N    -9.4    6.7    0.1
N     3.1    8.2    7.6
N    -3.1    8.2    7.6
P    -0.0   11.0    3.5
I     6.3    7.6   -6.1
I    -6.3    7.6   -6.1
H    -0.0   10.4   -5.2
I     6.3    1.4    9.7
I    -6.3    1.4    9.7
C    -0.0   10.9   -4.2
H     4.0  -11.0    0.9
H    -4.0  -11.0    0.9
I     9.4   -2.0   -6.7
I    -9.4   -2.0   -6.7
P     6.3   -1.9    9.8
P    -6.3   -1.9    9.8
H     9.4    7.0   -0.9
H    -9.4    7.0   -0.9
H     8.6    1.3    8.0
H    -8.6    1.3    8.0
N     6.3   -9.5   -3.1
N    -6.3   -9.5   -3.1
H     4.0    7.8    8.0
H    -4.0    7.8    8.0
I     3.1   11.0    3.3
I    -3.1   11.0    3.3
H    10.3    1.9    5.7
H   -10.3    1.9    5.7
H    10.3    6.1    0.2
H   -10.3    6.1    0.2
H     5.4  -10.1   -3.2
H    -5.4  -10.1   -3.2
H     8.5    8.4    0.9
H    -8.5    8.4    0.9
I    -0.0  -11.6    3.4
C     3.1  -11.6    1.1
C    -3.1  -11.6    1.1
N     6.3    9.9   -3.1
N    -6.3    9.9   -3.1
H     7.1    9.3   -3.2
H    -7.1    9.3   -3.2
H     6.3   -9.0   -5.2
H    -6.3   -9.0   -5.2
H     9.4    7.4    2.1
H    -9.4    7.4    2.1
I     3.1  -11.3   -3.1
I    -3.1  -11.3   -3.1
N     9.4    1.7    7.6
N    -9.4    1.7    7.6
H     6.3   10.3   -2.2
H    -6.3   10.3   -2.2
H     0.9   11.5   -4.1
H    -0.9   11.5   -4.1
C     9.4    7.8    1.1
C    -9.4    7.8    1.1
I     6.3   -2.1  -10.4
I    -6.3   -2.1  -10.4
C     9.4   -5.0    6.1
C    -9.4   -5.0    6.1
H    10.3   -6.9    0.2
H   -10.3   -6.9    0.2
I     6.3   -8.4    6.6
I    -6.3   -8.4    6.6
I     9.4    4.4   -6.7
I    -9.4    4.4   -6.7
H     3.1    0.4   12.0
H    -3.1    0.4   12.0
H     3.1    9.2    7.8
H    -3.1    9.2    7.8
H    11.7   -1.4   -4.1
H   -11.7   -1.4   -4.1
I    -0.0    7.8    9.7
H    11.7    2.8   -3.2
H   -11.7    2.8   -3.2
C    -0.0    1.3  -12.4
H     9.4    2.7    7.8
P     6.3    4.6    9.8
H    -9.4    2.7    7.8
P    -6.3    4.6    9.8
P     9.4   -5.3   -6.5
P    -9.4   -5.3   -6.5
I     6.3   -5.1    9.7
H     3.1  -12.0    2.1
H    -3.1  -12.0    2.1
I    -6.3   -5.1    9.7
H     2.2  -11.1    5.7
H    -2.2  -11.1    5.7
H    10.3   -4.6    5.7
H   -10.3   -4.6    5.7
H    -0.0   -5.5  -11.4
I    12.6   -1.7    0.1
I   -12.6   -1.7    0.1
H    11.7   -3.7   -3.2
H   -11.7   -3.7   -3.2
H     9.4   -6.1    5.9
H    -9.4   -6.1    5.9
H     2.3   12.5    0.2
H    -2.3   12.5    0.2
H     9.4   -3.8    7.8
H    -9.4   -3.8    7.8
I     3.1    7.7   -9.7
H     3.1  -12.4   -0.9
