         400
 sphere cut out from bulk 
P    -0.4    0.0    0.9
I     2.0    0.2   -1.2
I    -1.5   -2.1   -1.2
I    -1.8    2.1   -1.2
P    -0.4    0.0   -3.3
I     0.7    2.1    3.0
I     1.0   -2.1    3.0
H     3.6    2.0   -0.4
I    -2.8   -0.3    3.0
H     0.3   -4.4    1.4
H    -1.0   -4.6    0.1
H     3.2    3.0    1.8
H    -4.1    2.6   -0.4
H     4.0   -1.8   -2.4
N     4.2    2.7   -0.0
C    -0.1   -5.1    0.6
P    -0.3   -0.1    5.1
H     4.5    1.7    1.8
H    -0.9    4.6   -2.3
C     4.2    2.7    1.5
H     3.9    3.7   -0.4
H    -4.8    1.7    1.8
H     0.6   -5.4   -0.1
H     3.5   -3.5   -2.4
H    -4.0   -3.1   -2.3
H     3.3   -2.7    3.6
C     4.3   -2.8   -2.7
N    -5.1    2.7   -0.0
H     5.2    2.6   -0.4
I     1.1   -2.0   -5.3
H    -4.3    3.4    1.8
I     0.7    2.2   -5.3
C    -5.1    2.7    1.5
H    -5.3   -1.8   -2.4
H    -5.7    2.0   -0.4
H    -4.4   -2.1    3.7
H     0.6    4.4   -4.2
I    -2.8   -0.2   -5.5
H     1.2    5.3   -2.9
C    -0.9    5.4   -3.0
H     3.4   -2.6   -4.6
H     5.0    3.4    1.8
C    -5.0   -2.8   -2.7
H     0.1    4.3    4.7
N    -0.7   -6.3    1.3
N     0.5    5.3   -3.7
H     4.9   -2.1    3.7
H    -1.4   -6.0    1.9
H     5.2   -3.1   -2.3
N     4.3   -2.8    4.0
H    -5.4    3.7   -0.4
H    -4.3   -2.0   -4.5
N     4.3   -2.7   -4.2
H    -1.6    5.3   -3.8
I     3.1    5.9   -1.3
H    -0.9    6.4   -2.5
H     4.6   -3.7    3.6
H    -6.0    3.0    1.8
H    -4.7   -3.7    3.6
N    -5.0   -2.8    4.0
H     5.0   -2.0   -4.5
H    -1.1   -6.9    0.5
I     3.1   -6.2   -1.2
H     0.1   -6.8    1.8
N    -5.0   -2.7   -4.2
H    -5.8   -3.5   -2.4
I     6.5   -0.3    3.0
H     4.0   -1.8    5.8
I    -7.3    0.2   -1.2
C    -0.3    4.9    5.5
H    -4.6   -3.7   -4.6
P    -0.2   -0.0   -7.5
H    -6.0   -2.7    3.6
H    -1.2    4.4    5.9
H    -1.6    6.0    4.2
H     4.7   -3.7   -4.6
H     0.6    6.1   -4.3
C     4.3   -2.8    5.5
I     2.1   -0.0    7.3
I    -1.7    1.9    7.2
H     3.5   -3.5    5.8
I    -1.5   -2.3    7.3
I    -3.8   -6.0    3.0
H    -4.0   -3.1    5.9
I     7.5    2.1   -1.2
I    -3.9    6.1    3.0
H     0.3   -4.6   -6.4
N    -0.8    6.2    4.8
H    -5.9   -2.6   -4.6
H     3.3    2.9   -6.6
H    -0.1    6.7    4.3
C    -5.0   -2.8    5.5
H    -5.3   -1.8    5.8
H     0.4    5.2    6.2
I     7.8   -2.1   -1.2
H    -4.3    1.3   -7.0
H     5.2   -3.1    5.9
I     6.5   -0.2   -5.5
I    -2.5   -8.1   -1.1
I     5.4   -6.0    3.0
I    -6.2    5.9   -1.3
I    -2.7    8.2   -1.1
I     5.4    6.1    3.0
H     5.0    1.3   -7.0
I     1.6    8.1    3.0
I    -6.2   -6.2   -1.2
I    -3.8   -5.9   -5.5
H    -4.4    3.7   -6.8
H    -1.2    6.8    5.6
P     8.9    0.0    0.9
H    -5.8   -3.5    5.8
I     1.8   -8.2    3.0
C     4.1    3.2   -7.3
C     0.2   -5.4   -7.1
I    -3.8    6.2   -5.4
H    -1.9   -5.3   -7.1
I    -8.3   -2.1    3.0
P     4.0    8.1    0.9
H     4.9    3.7   -6.8
H     0.2   -6.4   -6.6
N    -4.6    1.9   -7.8
N     4.7    1.9   -7.8
H     3.9    1.3   -8.3
P    -0.3   -0.1    9.3
I    -8.6    2.1    3.0
P     4.2   -8.3    0.9
H     3.9    1.3    8.4
H    -6.0    2.9   -6.6
H    -3.9    2.0    8.3
P     8.9    0.0   -3.3
C    -5.2    3.2   -7.3
H    -3.8    2.0   -8.5
H     8.3   -4.6    0.1
N    -1.1   -5.3   -7.8
H    -1.2   -4.4   -8.4
H    -1.3    9.4    0.5
H     1.0   -5.3   -7.9
H    -1.3   -4.5    8.4
P    -5.2    8.1    0.9
H    -0.1    9.6    1.8
H     3.8    3.7   -8.2
P    -5.0   -8.3    0.9
I     5.5   -5.9   -5.5
P    -9.7    0.0    0.9
I     2.2    0.1   -9.5
H     8.4    4.6   -2.3
P     4.5   -8.1   -3.3
I     3.0    6.0    7.2
I     1.8    8.1   -5.4
I    -1.6    2.0   -9.5
I    -1.4   -2.2   -9.5
P     4.3    8.3   -3.3
I     5.5    6.2   -5.4
P    -4.8   -8.1   -3.3
I     3.1   -6.1    7.2
H    -5.4    1.3   -8.3
I    -8.2   -2.0   -5.3
H     7.7    5.3   -3.8
I     2.0   -8.3   -5.4
H     3.7    3.7    8.6
H     7.8   -6.0    1.9
H    -9.0   -4.4    1.4
H    -8.0    5.3   -2.9
H    -5.4    1.3    8.4
H     5.4    2.0    8.3
N    -0.9   10.1    1.3
H    -8.7   -5.4   -0.1
P    -5.0    8.3   -3.3
P    -9.7    0.0   -3.3
I    -7.2   -0.0    7.3
N     4.6    1.8    9.0
H     5.5    2.0   -8.5
N    -4.7    1.8    9.0
I    -8.5    2.2   -5.3
P     9.0   -0.1    5.1
H    -0.7  -10.0   -2.5
H    -1.4   -6.1    8.3
H     0.9   -5.4    8.9
P     4.0    8.2    5.1
C     8.4    5.4   -3.0
C     9.2   -5.1    0.6
H    -1.3   -6.1   -8.5
P     4.2   -8.2    5.1
N    -1.2   -5.4    9.0
H    -5.5    3.7   -8.2
H     0.1   -9.7    4.3
I     6.6    8.2   -1.1
H     7.7    6.0    4.2
H    -1.6   10.3    1.9
H    -8.7    4.4   -4.2
I     2.9   10.2   -1.2
I    10.0    2.1    3.0
H     9.6   -4.4    1.4
I     6.8   -8.1   -1.1
I     7.6    1.9    7.2
C    -9.4   -5.1    0.6
N     8.6   -6.3    1.3
H    -4.4    1.2    9.8
H     8.2   -6.9    0.5
C     4.0    3.1    9.5
H     8.4    6.4   -2.5
P    -5.1   -8.2    5.1
P    -9.6   -0.1    5.1
N    -8.8    5.3   -3.7
I    10.3   -2.1    3.0
I     7.8   -2.3    7.3
H    -5.6    3.7    8.6
H     0.4   11.0   -0.1
P    -5.3    8.2    5.1
H     8.1    4.4    5.9
H     4.9    1.2    9.8
I     3.3  -10.4   -1.3
H     3.2    2.9   10.2
I    -2.5   -8.1    7.1
I   -10.8   -2.1   -1.2
H    -1.0   -9.5    5.6
C     0.1   -5.5    9.6
H    -9.2    4.3    4.7
H     0.8  -10.3   -4.3
H   -10.2   -4.6    0.1
I    -2.7    8.2    7.1
H    -2.0   -5.4    9.7
H    -1.4  -10.4    4.2
N    -0.6  -10.2    4.8
C    -5.2    3.1    9.5
I    -3.7  -10.2    3.0
H     9.9   -5.4   -0.1
I    -6.2   -6.1    7.2
C    -0.3   11.3    0.6
I    -6.3    6.0    7.2
I   -11.1    2.1   -1.2
H     9.4    4.3    4.7
I    11.3    0.2   -1.2
H     0.2   -4.7   10.4
C    -0.7  -11.0   -3.0
H    -8.6    6.1   -4.3
H   -10.2    4.6   -2.3
I    -4.0   10.3    3.0
H     1.4  -11.0   -2.9
H    -4.4    3.6   10.0
I    -7.5   -8.2    3.0
H     7.4   -5.3   -7.1
N     8.4    6.2    4.8
I    -7.7    8.1    3.0
I    10.0    2.2   -5.3
H     9.9    4.4   -4.2
H    -9.2   -6.8    1.8
C     9.0    4.9    5.5
I     0.7    2.1   11.5
P    -0.3   -0.1  -11.7
N     0.7  -11.1   -3.7
I     1.0   -2.1   11.5
H     4.9    3.6   10.0
I    -2.9   -0.3   11.3
N     9.8    5.3   -3.7
H     9.4   -6.8    1.8
P     9.1   -0.0   -7.5
I     3.2   -6.0   -9.6
I     3.0    6.1   -9.6
H    -1.4  -11.1   -3.8
I    10.3   -2.0   -5.3
H    -1.1    4.5  -10.9
H     4.1   -1.7  -11.0
H     0.5    5.3  -10.6
N   -10.0   -6.3    1.3
H    -1.2   11.8    0.1
P     4.2    8.2   -7.5
C   -10.1    5.4   -3.0
I    -7.1    0.1   -9.5
P     4.4   -8.2   -7.5
I     5.2   10.3    3.0
H     8.1    6.8    5.6
H    -9.0   -4.6   -6.4
H     0.0   10.0   -6.6
H    -0.7  -11.7   -2.3
H    -4.0   -3.0  -10.9
H    -8.9    5.2    6.2
H     0.1   11.9    1.4
I    -3.6  -10.1   -5.4
I     5.6  -10.2    3.0
H     0.1   -6.4   10.1
H     3.6   -3.5  -10.9
I    -6.4   10.2   -1.2
P    -9.5   -0.0   -7.5
C    -9.6    4.9    5.5
I    -6.0  -10.4   -1.3
P    -4.9   -8.2   -7.5
H    10.5    5.3   -2.9
H     9.2    6.7    4.3
H    -6.1    2.9   10.2
P    -5.1    8.2   -7.5
I    -7.3   -8.3   -5.4
I    -7.5    8.1   -5.4
H    -5.2   -1.7  -11.0
H   -10.2    6.4   -2.5
H    -9.4    6.7    4.3
C    -0.2    5.0  -11.3
C     4.3   -2.7  -11.3
H     8.0    9.4    0.5
H     9.6   -4.6   -6.4
I     7.7    2.0   -9.5
H     9.9    6.1   -4.3
H     8.1   -4.4   -8.4
I    -4.0   10.5   -5.5
H     8.0   -4.5    8.4
H   -10.3   -6.9    0.5
H   -10.7   -6.0    1.9
N     8.2   -5.3   -7.8
I   -12.1   -0.3    3.0
H     5.3   -3.0  -10.9
I     7.9   -2.2   -9.5
C    -5.0   -2.7  -11.3
C    -0.1  -11.4    5.5
H     9.7    5.2    6.2
H    -8.3   -5.3   -7.9
H   -10.9    5.3   -3.8
H     0.8  -12.0   -4.2
I     6.6    8.2    7.1
I     6.8   -8.1    7.1
C    -9.1   -5.4   -7.1
H     0.6  -11.1    6.2
H   -10.4    4.4    5.9
I    -2.4   -8.0   -9.7
H    -5.7   -3.5  -10.9
N   -10.1    6.2    4.8
I     5.7  -10.1   -5.4
I    -6.1   -6.0   -9.6
I     2.9   10.2    7.2
H     0.3  -12.0    4.7
H     0.2    4.4  -12.1
H     3.3   -2.6   12.2
H    -9.1   -6.4   -6.6
I     5.3   10.5   -5.5
P     9.0   -0.1    9.3
I     3.2  -10.3    7.2
P     4.1    8.1    9.3
H     7.6   10.3    1.9
I    -6.2    6.1   -9.6
H    12.5    3.0    1.8
H     7.9   -6.1    8.3
I    -2.6    8.3   -9.7
I     6.4   -0.3   11.3
H    12.9    2.0   -0.4
C     9.5   -5.4   -7.1
C    -0.0   10.9   -7.1
H   -10.9    6.0    4.2
H     8.0   -6.1   -8.5
P     4.3   -8.3    9.3
I   -10.7   -2.3    7.3
H    -4.4   -2.1   12.3
N     8.4   10.1    1.3
N     8.1   -5.4    9.0
H    -1.1    6.9  -11.2
H     9.5   -6.4   -6.6
H    -1.6   10.2    8.3
I   -12.1   -0.2   -5.5
H     7.3   -5.4    9.7
I   -11.0    1.9    7.2
H    -2.1   11.0   -7.1
H     0.5    4.3   12.6
H     4.1  -12.7   -0.4
H     4.9   -2.1   12.3
H    -1.0  -11.9    5.9
H     9.2    9.6    1.8
I    -3.8   -6.0   11.3
P    -5.2    8.1    9.3
H    -8.4   -5.4    8.9
P    -9.6   -0.1    9.3
H     0.1   11.7   -6.4
P    -5.0   -8.3    9.3
H    12.6   -2.7    3.6
H     8.6  -10.0   -2.5
H    -1.5   10.3   -8.5
H    12.8   -3.5   -2.4
H     3.3   12.9   -2.4
I    -3.8    6.2   11.4
I    11.4   -0.0    7.3
N    -0.8    6.3  -11.9
H    -9.4    9.6    1.8
P    -0.5   -0.1   13.5
H     0.8   11.0   -7.9
H     4.6   -3.7   12.2
N     4.2   -2.8   12.6
N    -1.3   11.1   -7.8
H    13.3   -1.8   -2.4
H    -4.7   -3.7   12.2
H   -13.4    2.6   -0.4
H     7.9  -10.4    4.2
H    -4.1  -12.9    1.8
H    13.2    3.7   -0.4
H    12.7   -2.6   -4.6
H   -10.5    6.8    5.6
H    -5.2  -12.7   -0.4
I    12.3    5.9   -1.3
N     4.4   -2.8  -12.8
N    13.5    2.7   -0.0
H     8.3   -9.5    5.6
H     3.4   -2.6  -13.2
H     4.4   12.6    3.6
H    -6.0   -2.6   12.2
