         400
 sphere cut out from bulk 
I    -0.9   -1.5   -0.7
P     1.8    0.2   -0.7
H    -2.6   -0.2    1.1
I    -0.1    2.9   -0.7
H    -1.2    0.4    2.9
I     2.1    0.1    2.5
H    -2.1    0.6   -2.8
N    -3.0   -0.3    2.0
C    -2.3    0.7    2.9
H    -2.4    1.7    2.5
H    -2.9   -1.2    2.4
H     2.3   -2.6    2.4
I     1.9    0.3   -3.9
I     3.6   -2.4   -0.8
H    -4.0   -0.0    2.0
C    -3.0    0.3   -3.5
H    -3.5   -0.5   -2.9
H     1.6    4.3    1.3
H    -2.7    0.6    3.9
H     1.9    3.4    2.8
H     1.4    3.9   -2.5
I     4.4    2.2   -0.7
H    -1.8   -1.1   -4.5
P    -2.6   -4.2   -0.7
I    -4.5    2.2   -0.7
H     1.6   -4.7    1.3
H     0.6   -4.3    2.7
N     2.6   -3.5    2.8
C     1.6    4.3    2.4
N    -2.4   -0.3   -4.7
H     4.9   -0.0    2.0
H    -3.6    1.1   -3.8
H     2.7   -3.9   -2.6
H     0.6    4.6    2.7
C     1.6   -4.6    2.4
I    -2.8   -3.9    2.5
P    -2.6    4.8   -0.7
H     0.9   -3.4   -4.2
H    -1.8    0.4   -5.2
H     2.9    3.6   -3.3
H     3.5   -3.8    2.5
N     2.2    4.3   -3.1
H     2.6   -3.4    3.8
H     1.5   -5.1   -2.5
I    -5.3   -2.4   -0.8
I    -0.7   -1.5    5.7
N     2.2   -4.7   -3.1
P     1.9    0.3    5.7
I    -0.0   -6.0   -0.7
H     5.4   -0.5   -2.9
H    -3.1   -0.6   -5.3
H     2.6    5.1   -2.6
I    -2.8    5.0    2.5
I    -2.7   -4.1   -3.9
N     5.9   -0.3    2.0
I     0.0    3.0    5.6
C     1.7   -4.2   -4.4
H     1.2    3.9   -5.0
H     6.3   -0.2    1.1
H     1.9   -5.6    2.8
N     2.5    5.4    2.8
H     6.0   -1.2    2.4
H     5.4    1.1   -3.8
C     1.6    4.8   -4.4
H     3.5    5.2    2.5
H     2.5   -3.8   -5.0
I    -2.7    4.9   -3.9
C     6.0    0.3   -3.5
H     2.9   -5.4   -3.3
H     0.9    5.5   -4.2
H    -5.4   -3.8    2.5
H     2.3    6.3    2.4
H     1.2   -5.0   -5.0
H     2.6    5.5    3.8
P    -7.2    0.2   -0.7
H     6.5    1.7    2.5
I    -6.9    0.1    2.5
I    -0.9    2.0   -7.0
C     6.7    0.7    2.9
P     1.8    0.3   -7.1
I     3.7   -2.3    5.9
H     6.8    0.6   -2.8
H     6.3    0.6    3.9
P    -2.5   -4.1    5.8
I    -0.1   -2.3   -7.1
H    -6.6   -2.6    2.4
I     3.6    6.6   -0.8
I    -0.9    7.5   -0.7
I     4.5    2.3    5.7
I    -4.5    2.3    5.7
H     2.4    5.2   -5.0
P     6.3   -4.2   -0.7
I     6.2   -3.9    2.5
H    -6.1    3.6   -3.3
N    -6.4   -3.5    2.8
H    -6.3   -3.9   -2.6
H    -5.4    5.2    2.5
H     5.8   -0.6   -5.3
P     6.3    4.8   -0.7
P    -2.5    4.8    5.8
H    -2.4   -7.2    2.5
I    -7.0    0.3   -3.9
N     6.6   -0.3   -4.7
H    -1.9    0.8    7.8
I     4.4   -6.8   -0.7
H    -6.3   -3.4    3.8
I     0.1   -6.0    5.6
I    -4.5   -6.8   -0.7
I    -5.2   -2.3    5.9
I     8.1   -1.5   -0.7
H     7.7    0.4    2.9
I     6.1    5.0    2.5
H    -7.0    3.4    2.8
I     6.3   -4.1   -3.9
H    -6.3    5.1   -2.6
I    -5.4    6.6   -0.8
H     7.1   -1.1   -4.5
H    -3.2   -0.4    7.9
I     3.6    2.9   -7.2
H    -7.3    4.3    1.3
H    -2.9    7.7    2.4
N    -6.8    4.3   -3.1
H     1.4    3.9    7.5
I     4.4   -1.6   -7.3
H    -6.0   -5.4   -3.3
P    -2.7   -4.3   -7.1
I    -4.5   -1.6   -7.3
N    -6.7   -4.7   -3.1
H    -7.3   -4.7    1.3
H    -7.5    3.9   -2.5
I     6.2    4.9   -3.9
N    -6.4    5.4    2.8
H     7.1    0.4   -5.2
C    -7.4    4.3    2.4
C    -2.7    0.4    8.4
P     1.8   -8.7   -0.7
P    -2.7    4.7   -7.1
C    -7.3   -4.6    2.4
H    -6.5   -3.8   -5.0
H    -2.1   -8.3   -2.8
H     2.8   -4.0    7.6
C    -2.2   -8.3    2.9
P    -7.0    0.3    5.7
H    -1.2   -8.5    2.9
I     1.9    0.5    8.9
H     1.5   -5.0    7.5
H    -2.6    8.7    1.1
H    -1.8    7.8   -4.5
H    -6.4    5.5    3.8
H    -2.0    0.9   -9.1
H    -3.6   -7.8   -3.8
I    -5.3    2.9   -7.2
H    -7.5   -5.1   -2.5
H    -7.0   -5.6    2.8
P     1.7    9.2   -0.7
I     8.9    2.9   -0.7
H    -3.5    1.2    8.6
I    -0.7    7.5    5.7
N    -3.0    8.7    2.0
I     2.1   -8.9    2.5
N     2.2    4.3    8.2
I    -9.0    2.9   -0.7
H     2.8    3.5    8.4
H    -6.7    6.3    2.4
C    -7.3   -4.2   -4.4
H     2.7    5.0    7.6
P     6.4   -4.1    5.8
H    -2.6   -8.3    3.9
I     2.0    9.0    2.5
H    -2.6   -9.2    1.1
I     3.7    6.6    5.9
N     2.2   -4.7    8.2
H    -3.6    8.5   -2.9
H    -8.0   -3.4   -4.2
H    -6.5    5.2   -5.0
I     1.9   -8.7   -3.9
H     1.0   -3.2    9.1
H    -1.5   -0.8    9.6
I    -0.1    6.6   -7.1
C    -2.9   -8.6   -3.5
H    -8.3   -4.3    2.7
C    -7.3    4.8   -4.4
H     5.8   -0.4    7.9
I    -0.8   -6.9   -7.0
I    -4.4   -6.7    5.7
N    -3.0   -9.2    2.0
P     6.4    4.8    5.8
I     4.5   -6.7    5.7
H    -1.2    9.4    2.9
H    -8.4    4.6    2.7
H     1.7   -4.0   -8.9
I    -9.8   -1.5   -0.7
N    -2.2   -0.1    9.7
H    -4.0   -9.0    2.0
H    -4.0    8.9    2.0
H    -7.8    3.9   -5.0
P    -7.1    0.3   -7.1
H     6.0    7.7    2.4
I     3.7   -6.1   -7.2
H     6.6   -7.2    2.5
I     8.2   -1.5    5.7
I    -2.4   -4.1    8.9
N    -2.4    8.6   -4.7
H    -1.8   -8.6   -5.2
I     1.9    9.2   -3.9
H     5.4   -7.8   -3.8
H    -2.2    9.6   -2.8
H     5.5    1.2    8.6
I    -5.3    6.6    5.9
C    -3.0    9.3   -3.5
N    -2.0    0.8  -10.1
C    -2.3    9.6    2.9
H     1.7    5.0   -8.9
C     1.6   -4.1    9.4
H    -3.2    8.3   -5.3
H     4.9    8.9    2.0
H     2.8   -5.5    8.4
P     6.3   -4.3   -7.1
H     5.0   -9.0    2.0
H    -1.7    0.7   10.3
H    -2.7   -1.2  -10.0
H    -3.5   -9.4   -2.9
H     5.4    8.5   -2.9
H    -7.7   -5.0   -5.0
H    -1.1    0.6  -10.4
I    -2.5    4.9    8.9
I     1.6    0.4  -10.4
C     6.2    0.4    8.4
I    -0.8  -10.4   -0.7
P     1.9   -8.6    5.7
H   -10.2    0.4    2.9
H     7.0    0.8    7.8
P     6.2    4.7   -7.1
H    -6.2   -4.0    7.6
N    -2.4   -9.2   -4.7
H    -8.1    5.5   -4.2
H    -2.7    9.6    3.9
N     5.9    8.7    2.0
C     1.6    4.9    9.4
P    10.7    0.2   -0.7
H    -2.9   -0.5   10.3
I    -5.3   -6.1   -7.2
H     1.0    4.1    9.9
I     8.9   -6.0   -0.7
H     6.3    8.7    1.1
H     1.0    5.7    9.1
I    -9.0   -6.0   -0.7
H    -2.9  -10.2    2.4
H     9.6   -4.3    2.7
I     8.1    2.0   -7.0
H    -1.9    9.3   -5.2
H    -2.3    1.7  -10.5
C     2.1   -3.9   -9.9
H    -4.0    0.0  -10.2
I    -8.9    3.0    5.6
H     2.0   -2.9  -10.3
C    -3.0   -0.2  -10.5
H     9.5    4.6    2.7
I     8.0    7.5   -0.7
H    -6.2    3.5    8.4
H     2.5   -3.7   10.0
I     9.0    3.0    5.6
H    -6.2    5.0    7.6
C     6.7   -8.3    2.9
H     1.4    3.1  -10.5
P     1.9    9.3    5.7
H     1.1   -4.8    9.9
C     6.0   -8.6   -3.5
H     6.9   -8.3   -2.8
H    -1.8  -10.1   -4.5
N     6.0   -9.2    2.0
H     6.3   -8.3    3.9
H    -2.4   10.7    2.5
H     6.4   -9.2    1.1
H     3.2   -4.2   -9.9
I     4.4    7.3   -7.3
H     9.9   -3.4   -4.2
H     5.4   -9.4   -2.9
P    -7.1   -8.7   -0.7
I    -9.7   -1.5    5.7
I    -4.6    7.3   -7.3
I    11.0    0.1    2.5
H     5.0    0.0  -10.2
C     2.1    5.1   -9.9
H    -7.5    3.9    7.5
H    -3.6   10.1   -3.8
H    10.4    3.9   -2.5
P     1.9   -8.7   -7.1
I    -7.1    0.5    8.9
H    -3.1   -9.6   -5.3
H     5.8    8.3   -5.3
N    -6.8    4.3    8.2
H    -1.9   -8.1    7.8
H   -11.1    0.6   -2.8
H    10.6    4.3    1.3
I    -6.8   -8.9    2.5
H     7.0    0.9   -9.1
H     3.1    4.8   -9.9
H     7.1    7.8   -4.5
C     5.9    9.3   -3.5
I    10.9    0.3   -3.9
N    -6.7   -4.7    8.2
H     2.4    5.2   10.0
I    -2.5    4.5  -10.4
I    -2.5   -4.5  -10.4
H   -11.5   -0.2    1.1
I     8.8   -2.3   -7.1
C   -11.2    0.7    2.9
C    10.5    4.3    2.4
I    -6.9    9.0    2.5
H    10.6   -4.7    1.3
N     1.3    4.1  -10.8
H   -10.7   -1.1   -4.5
P    -7.2    9.2   -0.7
H    10.8    3.4    2.8
H    -7.5   -5.0    7.5
H     0.3    4.4  -10.9
H   -11.3    1.7    2.5
I    -9.0   -2.3   -7.1
H    -6.1   -5.5    8.4
C    10.6   -4.6    2.4
P     1.8    9.2   -7.1
I     6.5   -4.1    8.9
H    11.3   -2.6    2.4
N     6.5    8.6   -4.7
I    -7.0   -8.7   -3.9
H     0.4   -4.6  -10.9
H    10.4   -5.1   -2.5
N     6.8   -0.1    9.7
I    -0.1   11.9   -0.7
H     6.3   -1.2  -10.0
H     7.8   -8.5    2.9
I    -0.7  -10.4    5.7
H    10.1    3.9   -5.0
I     3.7  -11.3   -0.8
N     1.4   -4.8  -10.8
I     4.4   11.1   -0.7
H    -2.9   -0.3  -11.6
H     6.0   -0.5   10.3
H   -10.8    0.4   -5.2
H     5.3   10.1   -3.8
H     9.8    5.5   -4.2
H     2.4  -11.6    2.4
I    -4.6   11.1   -0.7
I    -8.9   -6.0    5.6
H    -3.2    8.5    7.9
I     6.5    4.9    8.9
H     6.2    9.6    3.9
C     6.6    9.6    2.9
C     6.0   -0.2  -10.5
H     6.8    9.6   -2.8
H     6.1  -10.2    2.4
H     1.5   -5.8  -10.5
N   -11.9   -0.3    2.0
H    -3.4   -7.8    8.6
H   -11.8   -1.2    2.4
H     2.0    6.1  -10.3
H    -7.2   -4.0   -8.9
I     9.0   -6.0    5.6
H     7.5   -0.8    9.6
I    -9.8    2.0   -7.0
H    -5.8   -4.2   -9.9
C    10.6   -4.2   -4.4
H    -1.9   -8.0   -9.1
N     6.9    0.8  -10.1
I    -7.1    9.2   -3.9
P    10.8    0.3    5.7
N   -11.3   -0.3   -4.7
H   -11.6    0.6    3.9
P     2.0    0.4   12.1
N     6.6   -9.2   -4.7
C    -2.7   -8.5    8.4
P   -11.5   -4.2   -0.7
H     7.1   -8.6   -5.2
I    -0.8    2.2   12.1
N    11.1    4.3   -3.1
N    11.5   -3.5    2.8
H    10.2   -5.0   -5.0
I     0.0   -2.2   12.2
I    -9.9    7.5   -0.7
C   -11.9    0.3   -3.5
C    10.6    4.8   -4.4
H     5.8   -9.6   -5.3
I     1.9   -8.4    8.9
I     8.2    7.5    5.7
H    -5.8    4.8   -9.9
H     7.7    9.4    2.9
N    11.2   -4.7   -3.1
H    -6.5   -3.7   10.0
H    11.6   -3.9   -2.6
P    -7.0   -8.6    5.7
H    -7.9   -3.2    9.1
I    -5.3  -11.3   -0.8
H    10.9   -5.6    2.8
P   -11.6    4.8   -0.7
H     6.7    1.7  -10.5
H    -7.3    5.0   -8.9
H     7.2    0.7   10.3
C    -7.3   -4.1    9.4
H     1.7    4.1  -11.8
