         400
 sphere cut out from bulk 
P     0.1    0.1    0.0
I    -0.6   -3.0    0.2
I    -2.4    0.7   -2.0
I    -1.7    0.7    2.6
I     2.0   -0.4   -2.5
I     2.7   -0.3    2.0
I     0.9    3.3   -0.2
H    -0.1   -2.3    3.3
H     0.4   -2.2   -3.6
H    -0.9    2.4   -3.5
H    -0.2    2.4    3.6
H     0.4    3.3   -3.0
H     3.1   -3.1   -0.9
H    -3.2   -3.0    0.8
H    -2.9    3.3    0.9
H    -4.0    2.4   -1.0
H     3.4    3.3   -0.7
H     4.2   -2.2    1.1
H    -4.2   -2.2   -1.2
C     0.4   -2.7    4.1
N    -0.3    3.3   -3.7
H     1.4   -3.0    3.8
N    -0.0   -3.0   -4.0
H    -1.1   -3.0   -3.9
H     4.4    2.4    1.3
H    -4.4    2.4    1.3
N     0.2    3.2    4.1
N    -4.2   -3.0    0.7
C    -4.0    3.3    0.9
H    -4.6   -2.2    1.1
H     0.4   -3.9   -3.5
C     4.2   -3.1   -0.8
H     4.7   -2.2   -1.2
H     1.3    3.2    4.0
H     0.5   -1.9    4.9
H    -0.2    4.1    3.6
H    -0.9    4.1   -3.5
N    -4.4    3.3   -0.6
H     4.8    2.4   -1.0
N     4.6   -3.0    0.7
N     4.4    3.3   -0.6
C    -4.6   -3.1   -0.8
H     0.8    2.3   -5.2
H     4.2   -3.9    1.1
H    -4.0    4.1   -1.1
H    -4.2   -4.0   -1.2
C     4.8    3.3    0.9
C     0.2    3.2   -5.1
H    -0.4   -4.6    3.9
N    -0.3   -3.9    4.6
H    -4.6   -3.9    1.1
P     0.1   -6.2    0.0
H     4.4    4.2    1.3
H     4.6   -4.0   -1.2
H    -4.4    4.2    1.3
H    -1.2   -3.6    5.0
C     0.3   -3.0   -5.5
P    -4.3    0.1    4.6
H    -0.2   -2.1   -5.9
P    -4.4    0.1   -4.5
H    -5.4    3.3   -0.7
P     4.4    0.1   -4.5
I    -3.6   -3.0   -4.4
C    -0.1    3.2    5.6
H     5.6   -3.0    0.8
H     4.8    4.1   -1.1
H     0.3    2.3    6.0
P     0.2    6.5    0.0
P     4.5    0.1    4.6
I    -6.2   -0.3    2.0
I     1.9   -5.6   -2.5
H    -5.7   -3.1   -0.9
H     1.4   -3.0   -5.6
I     2.6   -5.7    2.0
H    -1.2    3.2    5.6
H    -0.6    3.2   -5.7
I    -2.3    5.9   -2.0
I    -3.7   -3.1    4.7
H     0.8    4.1   -5.2
I     3.8    3.3    4.4
I    -1.6    6.0    2.6
I     6.4    0.7   -2.0
H     5.9    3.3    0.9
I     3.9    3.3   -4.6
H     0.3   -4.3    5.4
I    -1.9    0.6   -6.6
I     2.1   -0.3    6.6
H    -0.2   -3.9   -5.9
H     0.3    4.1    6.0
I    -6.8   -0.4   -2.5
I    -1.7   -6.7    2.6
I    -5.0    3.3    4.4
I     5.2   -3.0   -4.4
I    -2.4   -6.7   -2.0
I    -4.9    3.3   -4.6
I     5.1   -3.1    4.7
I     2.6   -0.4   -7.1
I     7.1    0.7    2.6
I    -2.4    0.5    7.2
I     2.7    6.9    2.0
I     2.0    7.0   -2.5
I    -7.9    3.3   -0.2
I    -6.2   -5.7    2.0
P    -8.7    0.1    0.0
I     8.2   -3.0    0.2
H    -7.4   -3.0    3.8
P     4.4   -6.1   -4.6
P    -4.4   -6.1   -4.6
P     8.9    0.1    0.0
H    -0.3    8.0    3.9
P    -4.4   -6.2    4.6
H    -3.3    2.5   -7.9
H     7.9    2.4   -3.5
P     4.4   -6.2    4.6
I     6.5    5.9   -2.0
I     1.9   -5.8    6.6
P    -4.3    6.4    4.6
P    -4.3    6.5   -4.6
P     4.5    6.4    4.6
I    -1.9    5.9   -6.6
H     4.2    3.3   -7.4
H    -7.5    3.2    4.0
P     4.5    6.5   -4.6
P     0.2    0.1    9.1
P     0.1    0.1   -9.2
H     7.7   -3.0   -3.9
H    -1.0   -8.5   -3.5
I    -6.9   -5.6   -2.5
H    -0.3   -8.5    3.6
H     3.1   -3.1    8.2
H    -4.6    3.3   -7.4
H    -3.9   -1.5    8.3
I     0.8   -9.3   -0.2
H    -8.4   -2.2   -3.6
I     2.4   -5.8   -7.1
I    -6.1    6.9    2.0
I    -6.7   -0.3    6.6
H     0.5    8.7   -3.5
I    -6.2   -0.4   -7.1
H    -3.6    3.3    8.1
H    -4.1   -8.5   -1.1
H    -8.4    3.3   -3.0
I     6.4   -6.7   -2.0
H    -3.3    4.1   -7.9
H     8.7   -2.3    3.3
H    -4.2   -3.8    7.7
H     4.3   -8.4    1.3
H     7.9    4.1   -3.5
N    -3.9    3.3   -8.1
I     6.9    0.6   -6.6
I    -0.6   -3.0   -9.1
I    -0.6    9.6    0.2
I    -2.3    6.0    7.1
H     4.3   -1.8   -8.4
I    -2.0   -6.7   -6.6
I     6.4    0.5    7.2
H    -4.5   -8.4    1.3
H    -4.1    8.7   -1.2
H     8.6    2.4    3.6
I     7.2    6.0    2.6
I     0.7    3.3   -9.1
C    -8.4   -2.7    4.1
I     2.0    6.8    6.6
I    -0.6   -3.0    9.2
H    -3.1   -2.5   -8.9
H     7.6   -3.6    5.0
H    -4.5   -1.8   -8.4
H     3.8    2.4    8.7
H     4.7   -3.8    7.7
I     0.7    3.3    9.2
N     8.5    3.3   -3.7
H    -7.4   -3.0   -5.6
H    -8.9   -2.3    3.3
H     4.2    8.7    1.1
H     4.8   -8.5   -1.1
H     4.9   -1.5    8.3
H     0.3   -9.3   -3.0
H    -8.0    2.3   -5.2
H    -3.0   -9.3    0.9
H    -8.3   -1.9    4.9
N    -0.2    8.8    4.6
H     0.3    8.3    5.4
H    -8.4   -3.9   -3.5
I    -9.4   -3.0    0.2
H    -4.6    8.7    1.1
H     3.3   -9.3   -0.7
H     4.7    8.7   -1.2
H     0.7   -8.5   -5.2
H     5.5    2.5   -7.9
H    -9.0    2.4    3.6
H     7.6    3.2    5.6
I    -2.4   -6.6    7.1
N    -8.6    3.2    4.1
N    -0.4   -9.3   -3.7
N     4.9    3.3   -8.1
I    -6.8    7.0   -2.5
C     4.1   -3.4    8.6
I     7.1   -6.7    2.6
H    -3.1    9.6    0.8
H     9.2   -2.2   -3.6
N     8.8   -3.0   -4.0
H     3.2    9.6   -0.9
N    -8.8   -3.0   -4.0
N    -4.0   -2.2    9.1
I     2.5    6.9   -7.1
H    -3.0   -2.5    9.4
H     5.2    3.3    8.1
I     9.7    3.3   -0.2
C    -4.1   -9.3    0.9
H     8.6    4.1    3.6
H     9.2    3.3   -3.0
N     0.1   -9.4    4.1
H     1.2   -9.4    4.0
N    -4.0   -2.2   -9.2
H     8.4   -4.6    3.9
N     4.4   -9.3   -0.6
H    -5.0    2.4    8.7
C    -4.7   -3.4    8.6
H    -1.2    9.0    5.0
N    -4.4   -9.3   -0.6
H    -1.0    9.6   -3.9
N    -9.1    3.3   -3.7
H     3.8    4.2    8.7
C     4.4    3.3    8.8
N     0.1    9.6   -4.0
C    -4.4    3.3    8.8
H    -8.0    4.1   -5.2
H     0.2   -8.5    6.0
N     8.5   -3.9    4.6
N     9.0    3.2    4.1
C     9.2   -2.7    4.1
N    -4.1    9.6    0.7
H     1.5    9.7    3.8
H    -5.7   -3.1    8.2
C     4.7   -9.3    0.9
H    -0.1    8.7   -5.9
H     8.2    3.2   -5.7
C    -8.6    3.2   -5.1
N     4.8   -2.2    9.1
H     5.5    4.1   -7.9
H    -9.0    4.1    3.6
C     4.3    9.6   -0.8
C    -8.5   -3.0   -5.5
C    -4.5    9.6   -0.8
H     9.2   -3.9   -3.5
H     3.8    2.4   -9.6
N     4.8   -2.2   -9.2
H    -9.7    2.4   -3.5
H     4.0   -4.1   -8.9
C     0.1   -9.4   -5.1
H    -8.5    2.3    6.0
N     4.7    9.6    0.7
P    -8.7   -6.2    0.0
H     9.3   -1.9    4.9
H     8.7   -2.1   -5.9
P    -8.6    6.5    0.0
C     0.5   10.0    4.1
H    -3.9   -1.5  -10.0
H    -1.0  -10.2   -3.5
C     8.7    3.2    5.6
C     9.0    3.2   -5.1
P     8.9   -6.2    0.0
H    -5.5   -9.3   -0.7
H    -0.3  -10.2    3.6
H    -0.1   10.4    3.3
I   -10.5    0.7    2.6
H     5.7   -2.5   -8.9
H     4.3   -1.7    9.9
H    -5.0    4.2    8.7
N    -9.1   -3.9    4.6
C    -0.2   -9.4    5.6
H    -9.0   -2.1   -5.9
H    -4.8   -4.1   -8.9
C     4.4    3.3   -9.5
H     3.1   -3.1  -10.1
H     4.0   -4.1    9.4
C    -4.4    3.3   -9.5
H    -8.6   -4.3    5.4
H    -4.5   -1.7    9.9
C    -8.9    3.2    5.6
H    -4.0  -10.2   -1.0
H    -9.2   -4.6    3.9
P     0.0   -6.2   -9.1
I     3.7   -9.3    4.4
H    -9.9   -3.0   -3.9
H     5.8   -9.3    0.9
H    -0.7   -9.4   -5.7
H     0.5   10.4   -3.6
C     9.1   -3.0   -5.5
H    -1.3   -9.4    5.6
C     0.4    9.6   -5.5
P     9.0    6.5    0.0
I    10.8   -0.4   -2.5
C     4.1   -3.4   -9.7
I     3.8   -9.4   -4.6
P     0.0   -6.2    9.2
H    -5.6    9.6   -0.9
I    -3.5    9.6   -4.4
I    -6.4   -5.8   -7.1
H    -9.7    4.1   -3.5
H    -3.3    2.5   10.4
P     0.1    6.4   -9.1
H    -5.0    2.4   -9.6
H     3.8    4.2   -9.6
H     9.1    2.3    6.0
I    -6.9   -5.8    6.6
H     9.6    2.3   -5.2
H     4.3  -10.2    1.3
H     5.7    9.6    0.8
H     1.5    9.6   -5.6
H     8.6   -3.9   -5.9
H    -8.5    4.1    6.0
H     4.9   -1.5  -10.0
P     0.1    6.4    9.2
H    -4.5  -10.2    1.3
I    -3.6    9.6    4.7
I     6.9    5.9   -6.6
H     4.8  -10.2   -1.0
H    -4.1   10.4   -1.2
H     5.8   -2.5    9.4
H    -4.8   -4.1    9.4
H    10.2   -3.0    3.8
H    10.1    3.2    4.0
H     4.3   10.4    1.1
H    -3.6    3.3  -10.2
I     6.5    6.0    7.1
C    -4.7   -3.4   -9.7
I   -11.2    0.7   -2.0
N    -3.9    3.3   10.2
H     9.1   -4.3    5.4
I    -2.4    0.5  -11.1
H    -9.0   -3.9   -5.9
H    -4.6   10.4    1.1
I     2.6   -0.4   11.2
I    -5.1   -9.3    4.4
H     0.7  -10.3   -5.2
H    -9.4    3.2   -5.7
H     4.7   10.4   -1.2
I    -5.0   -9.4   -4.6
I     6.8   -6.7   -6.6
I     6.4   -6.6    7.1
H    -3.3    4.1   10.4
H    -5.0    4.2   -9.6
I    11.5   -0.3    2.0
H     9.1    4.1    6.0
I    -6.8    6.8    6.6
I    -6.3    6.9   -7.1
H     9.6    4.1   -5.2
H   -10.0   -3.6    5.0
H     0.6   10.7    4.9
I     5.3    9.6   -4.4
N     5.0    3.3   10.2
I    -1.9    0.6   11.6
I     5.2    9.6    4.7
I     2.1   -0.3  -11.6
H     0.2  -10.3    6.0
H     5.2    3.3  -10.2
H   -10.0    3.2    5.6
H    -4.2   -3.8  -10.6
H    -5.7   -3.1  -10.1
H    10.2   -3.0   -5.6
H     5.5    2.5   10.4
H    -0.1   10.5   -5.9
H     7.8   -8.5   -3.5
H    -3.4   -8.5   -7.9
H     4.2    3.3   10.9
H     4.6   -3.8  -10.6
H   -11.7    3.3    0.9
H    -4.6    3.3   10.9
H     8.5    8.0    3.9
I    -8.0   -9.3   -0.2
I   -10.5    6.0    2.6
I    -2.4  -11.9   -2.0
H    11.9   -3.1   -0.9
I    -1.8  -12.0    2.6
I    10.7   -5.6   -2.5
H   -12.0   -3.0    0.8
H    -4.1    8.8    7.7
H     5.5    4.1   10.4
H     0.3    2.3  -12.3
P     0.0  -12.5    0.0
H    -0.1   -2.1   12.4
H     4.1   -9.3   -7.4
H    -8.3    8.7   -3.5
P    -8.7    0.1    9.1
P    -8.7    0.1   -9.2
I     8.2   -3.0   -9.1
H     8.5   -8.5    3.6
I     2.0   12.2   -2.5
H     3.7   -8.4    8.7
I     8.2    9.6    0.2
H     4.7    8.8    7.7
I    -8.1    3.3   -9.1
I   -10.8    0.6   -6.6
H    12.2    3.3   -0.7
H    -7.3    9.7    3.8
I    -8.1    3.3    9.2
P     0.2   12.7    0.0
I     2.7   12.3    2.0
I     8.2   -3.0    9.2
