         400
 sphere cut out from bulk 
H     0.6    0.2   -1.3
C     0.3   -0.5   -2.1
H     0.6   -1.5   -1.8
H    -0.7   -0.4   -2.3
I    -2.1   -0.9    1.4
I     2.4   -0.1    1.2
H     1.2    2.4    1.8
I    -1.4    2.9   -1.2
P     0.5   -2.2    2.6
N     1.1   -0.1   -3.3
H     2.1   -0.2   -3.2
H     0.9    0.8   -3.7
H     0.3    3.8    1.2
C     0.9    3.4    2.0
P    -3.9    1.4   -0.0
I     0.6   -4.1   -0.0
H     0.8   -0.8   -4.1
H    -0.8    2.8    3.2
H    -3.7   -2.7    0.6
N     0.1    3.5    3.2
H     1.7    4.1    2.1
I     3.1    3.5   -1.6
I    -4.2   -0.5   -2.7
H     3.9   -3.3   -0.2
P     5.0    1.4   -0.0
H     0.6    3.2    4.1
I     0.5   -0.5    5.3
H    -3.7   -0.1    3.9
H    -3.0   -4.5   -0.9
I     4.7   -0.5   -2.7
N    -4.3   -3.5    0.4
H    -0.3    4.4    3.4
I    -3.8    3.2    2.6
H    -2.7   -4.9    0.8
P     0.5    5.0   -2.6
H     4.2   -3.7    1.4
C    -3.4   -4.7    0.0
N     4.6   -3.5    0.4
H    -3.0    2.6   -4.4
H     5.2   -2.7    0.6
H    -5.0   -3.3   -0.2
I     0.5    3.0   -5.2
H     3.8    0.6    4.7
H     3.9   -1.1    4.6
I     3.1   -3.8    3.6
H    -4.7   -3.7    1.4
I    -2.0   -4.5   -3.7
I    -1.3   -4.5    4.2
I     2.4   -3.9   -4.4
I    -1.2   -0.9   -6.3
C    -4.4   -0.2    4.7
C     4.5   -0.2    4.7
H     5.2   -0.1    3.9
P     0.6   -6.0   -2.6
H    -4.4    3.3   -3.7
I     5.1    3.2    2.6
I    -6.5   -0.1    1.2
N    -3.7    3.4   -4.5
H     4.6    3.3   -3.7
H    -2.7    6.1    0.8
H    -5.0   -1.1    4.6
H    -4.1    5.4   -0.1
H    -3.2    4.3   -4.3
H    -3.0   -0.9    6.1
H    -4.1   -5.6   -0.1
I     0.6    6.9   -0.0
P    -3.9   -2.4   -5.2
I    -5.8    3.5   -1.6
H    -5.1    0.6    4.7
I     6.8   -0.9    1.4
H    -3.2    0.7    6.2
N    -3.7   -0.2    6.0
C     5.5   -4.7    0.0
C    -3.5    6.3    0.0
H     4.8    5.4   -0.1
H    -3.0    6.6   -0.9
H     0.3   -7.2    1.2
H     4.8   -5.6   -0.1
I     2.2    3.5    6.1
H     0.9   -2.7    6.8
H    -0.2   -6.6    3.4
H     1.8   -6.9    2.1
H    -6.8   -0.2   -3.2
H     5.9   -4.5   -0.9
H     4.0    2.4   -5.9
I     3.2   -0.3   -6.8
P     5.0   -2.4   -5.2
I    -2.2    2.9    6.7
N     5.2    3.4   -4.5
H    -0.2   -3.0   -7.1
H     0.8   -4.3    6.3
H     0.8   -4.3   -6.4
I    -2.1    6.5   -3.7
H     5.9    2.6   -4.4
I    -5.8   -3.8    3.6
C     1.0   -7.6    2.0
I    -1.3    6.6    4.2
N     5.2   -0.2    6.0
H     6.2   -4.9    0.8
C    -4.4    3.4   -5.8
P     0.5    1.5    7.9
P     0.6    1.3   -7.9
H    -4.9    2.4   -5.9
N     1.0   -3.7    7.1
C     4.5    3.4   -5.8
H    -4.4   -0.3    6.8
H     4.5   -0.3    6.8
H     3.8    4.2   -5.8
I     7.5    2.9   -1.2
N     0.1   -7.6    3.2
H    -7.7    2.4    1.8
H    -3.6    3.5   -6.6
N     0.2   -4.0   -7.2
C     5.4    6.3    0.0
P    -4.0    5.1    5.2
I     3.2   -7.5   -1.6
I    -1.3   -8.1   -1.2
H     5.7    4.3   -4.3
H    -8.3    0.2   -1.3
H     5.7    0.7    6.2
N    -7.8   -0.1   -3.3
H     2.1   -3.8    7.3
H     4.1    7.3    1.4
H     8.2   -0.4   -2.3
H     5.9   -0.9    6.1
H    -7.2    4.1    2.1
H    -3.1   -6.7   -4.3
H     3.8    7.7   -0.2
I     3.1    7.2    3.6
I     2.3    7.1   -4.4
N    -4.3    7.5    0.4
H    -0.6   -4.6   -7.3
H    -8.4   -1.5   -1.8
H     6.2    6.1    0.8
N     4.6    7.5    0.4
P     4.9    5.1    5.2
I    -6.5   -3.9   -4.4
H    -5.1    4.2   -5.8
H    -0.7   -8.2    3.2
H    -8.0    0.8   -3.7
H    -4.8    7.3    1.4
C    -8.6   -0.5   -2.1
H     0.7   -7.8    4.1
P    -3.9   -5.9    5.2
H     5.9    6.6   -0.9
H     1.3   -8.6    1.8
I    -5.7   -0.3   -6.8
C    -8.0    3.4    2.0
I    -3.7   -7.8    2.6
I     6.9   -4.5   -3.7
H    -0.8   -3.9    8.1
P    -8.4   -2.2    2.6
H    -8.1   -0.8   -4.1
H     5.3    3.5   -6.6
H    -3.7    8.3    0.6
P     0.4    8.8    2.6
H     8.1    2.8    3.2
H     1.9   -3.4   -8.3
H    -5.1    7.7   -0.2
I    -8.3   -4.1   -0.0
H     0.7    6.7    6.3
C     0.3   -4.0    8.4
P     5.0   -5.9    5.2
H     0.7    6.8   -6.4
I    -1.4   -0.7    9.3
I     3.1   -0.1    8.9
C     1.0   -4.0   -8.5
C     9.2   -0.5   -2.1
H    -8.6    3.8    1.2
I     0.6   -8.0   -5.2
N    -3.6   -7.6   -4.5
H    -4.3   -7.7   -3.7
I    -5.7   -7.5   -1.6
H     9.5    0.2   -1.3
I    -3.6   -4.2   -7.9
I    -2.0    2.7   -9.1
I    -6.7    3.5    6.1
H     4.6   -7.7   -3.7
H     0.5    9.5   -1.8
I     5.2   -7.8    2.6
H     9.5   -1.5   -1.8
H    -8.3    3.2    4.1
H     0.5   -3.3    9.1
H    -0.7    6.4   -7.3
H     3.9   -6.8   -5.8
I    -4.2   -4.1    7.8
I     7.6   -4.5    4.2
H     5.2    8.3    0.6
H     5.8   -6.7   -4.3
H    -2.9   -8.4   -4.4
H    -9.6   -0.4   -2.3
I    -5.8    7.2    3.6
I     6.7    2.9    6.7
I     2.3   -7.5    6.1
I     4.7   -4.1    7.8
I     7.7   -0.9   -6.3
P     9.4   -2.2    2.6
I    -8.5   -0.5    5.3
H     9.2    3.8    1.2
H     0.4   -3.7   -9.3
N    -8.8    3.5    3.2
H     0.5   -5.1    8.6
H     4.3   -0.2   -9.1
N     0.1    7.0   -7.2
H    -2.6   -1.3   -9.7
P    -8.4    5.0   -2.6
H     1.4   -5.0   -8.7
I     6.8    6.5   -3.7
H    -7.1   -6.9    2.1
N     9.0    3.5    3.2
I     2.5    3.4   -9.3
H    -4.6   -0.2   -9.1
H    -5.0   -6.8   -5.8
N     1.0    7.3    7.1
H     8.6    4.4    3.4
I    -8.4    3.0   -5.2
N     5.3   -7.6   -4.5
I     5.3   -4.2   -7.9
I     9.5   -4.1   -0.0
P    -3.9   -9.7   -0.0
H     2.0    7.2    7.3
H    -3.1    3.0    9.5
I    -2.2   10.2    1.4
C    -4.3   -7.6   -5.8
H     0.4    6.0    8.6
H     9.8    0.8   -3.7
I     0.7   -0.6  -10.5
H    -3.6    0.9   -9.9
P    -8.3   -6.0   -2.6
H    -9.7    2.8    3.2
N    10.0   -0.1   -3.3
C     9.8    3.4    2.0
H    10.1    2.4    1.8
H    -3.5   -7.5   -6.6
H     1.3    6.0   -8.7
I    -6.6    7.1   -4.4
H     9.7   -0.8   -4.1
C     4.6   -7.6   -5.8
I    -5.8   -0.1    8.9
H    -0.2    8.0   -7.1
H    -6.8   -3.8    7.3
I   -10.3    2.9   -1.2
I    -2.1   -8.1    6.7
H    -9.2    4.4    3.4
H     0.8    8.3    6.8
I     9.4   -0.5    5.3
C     0.3   10.6   -2.1
I    -8.3    6.9   -0.0
H    -0.9    7.1    8.1
H     9.5    3.2    4.1
P    -3.9    8.7   -5.2
H     1.0  -10.2   -3.7
N    -4.2    0.0  -10.0
I     7.6    6.6    4.2
C     0.2    7.0    8.4
H    -8.0   -2.7    6.8
P     5.0   -9.7   -0.0
H     0.7  -10.8   -1.3
H    -0.8   10.7   -2.3
I     0.5    3.3   10.4
P     9.4    5.0   -2.6
C    -3.4   -1.1  -10.4
I    -3.7    6.8   -7.9
C     1.0    7.0   -8.5
N     4.7    0.0  -10.0
H     0.8   10.3   -4.1
I   -11.0   -0.9    1.4
C    -7.9   -7.6    2.0
I     9.4    3.0   -5.2
H    -8.1   -4.3    6.3
H    -8.1   -4.3   -6.4
H     4.1   -8.6   -5.9
H     6.0   -8.4   -4.4
I     7.6   -8.1   -1.2
I     2.3   10.9    1.2
N    -7.9   -3.7    7.1
H     5.3    0.9   -9.9
P     5.0    8.7   -5.2
H    -8.6   -7.2    1.2
I    -4.3    7.0    7.8
H     5.4   -7.5   -6.6
H     0.6   11.3   -1.3
H    -4.2    1.9   10.4
I    11.3   -0.1    1.2
H    -7.0   -3.4   -8.3
C    -3.6    2.7   10.5
H     4.0    0.3  -10.7
P    -4.0   -2.2   10.5
H     8.7   -6.6    3.4
H     2.1   10.8   -3.2
I     4.6    7.0    7.8
N     1.0   10.9   -3.3
H    -4.0   -2.0  -10.5
H    -4.8   -8.6   -5.9
H     1.8    7.7   -8.3
H    11.0   -0.2   -3.2
I     2.5  -11.2    1.2
P     9.5   -6.0   -2.6
H     5.8    3.0    9.5
H     4.7    1.9   10.4
P    -8.3    1.3   -7.9
H     3.9    9.9    4.6
H    10.7    4.1    2.1
P    -8.4    1.5    7.9
H     0.2    0.2   11.6
H     6.3   -1.3   -9.7
I     5.2    6.8   -7.9
H    -0.7  -11.4   -2.3
H    -7.6   -8.6    1.8
H     8.8   -3.0   -7.1
H     3.8    4.1   10.2
I    -4.2   10.5   -2.7
C     0.4  -11.5   -2.1
I     6.9    2.7   -9.1
N     1.2  -11.2   -3.3
I     9.5    6.9   -0.0
I    -6.6   -7.5    6.1
I     0.4   10.5    5.3
P     4.9   -2.2   10.5
H    -9.1   -6.6    3.4
H    -4.9    0.3  -10.7
I    -6.4    3.4   -9.3
H     4.9   -2.0  -10.5
H    -2.9   -0.9  -11.4
H     9.2   -7.2    1.2
I     4.7   10.5   -2.7
I   -10.2   -4.5    4.2
H    -9.1   -3.0   -7.1
H     0.4    7.4   -9.3
H    -2.8    2.6   11.3
C     5.6   -1.1  -10.4
I   -10.1   -0.9   -6.3
H     2.2  -11.3   -3.2
I     7.5   -0.7    9.3
H     0.5    7.7    9.1
H     8.3   -4.6   -7.3
I    -1.2   10.1   -6.3
H    -5.0    9.9    4.6
N    -8.7   -4.0   -7.2
H     3.8  -10.4    4.7
H     8.2   -8.2    3.2
N    -8.8   -7.6    3.2
H    -8.2   -7.8    4.1
C     5.3    2.7   10.5
H     8.1   -3.9    8.1
I    -2.0  -11.9    1.4
H    -5.1    4.1   10.2
H    -3.1   10.1    6.1
P    -3.8    4.9  -10.5
H    -3.7   10.9    3.9
H     9.8   -2.7    6.8
N     9.0   -7.6    3.2
C    -7.9   -4.0   -8.5
I     2.6   -7.6   -9.3
I     6.7   10.2    1.4
N     9.1   -4.0   -7.2
H    -3.6  -11.1    3.9
P     9.4    1.5    7.9
H    -8.2    6.7    6.3
H     9.7   -4.3    6.3
H     9.7   -4.3   -6.4
H    -6.9    7.2    7.3
P     0.5   -9.6    7.9
P     9.5    1.3   -7.9
H     1.2   -1.2   12.3
N    -4.4    3.9   10.9
H    -8.2    6.8   -6.4
H     0.7    3.8  -11.8
H    -3.2  -10.3    6.2
I   -10.9   -4.5   -3.7
N     4.5    3.9   10.9
H     0.9   11.9   -3.7
I     2.3   -3.7   11.7
H    -5.1  -10.4    4.7
I    -2.0   -8.3   -9.1
P    -8.5    8.8    2.6
C     0.8   -0.1   12.5
H     0.6    2.1  -12.3
I    -4.1  -11.5   -2.7
P     0.6   -9.7   -7.9
H     0.9  -11.8   -4.1
H    -7.5   -5.0   -8.7
I     6.8   -8.1    6.7
H   -11.6   -4.9    0.8
I    -1.2   -4.6  -11.7
C     4.4   10.8    4.7
C     9.9   -7.6    2.0
H    -3.8    4.8   11.1
I    12.0    3.5   -1.6
C    -4.5   10.8    4.7
P     5.1    4.9  -10.5
I    -8.3   -8.0   -5.2
H     0.6  -12.5   -1.8
C    -8.6   -4.0    8.4
P    -3.8   -6.1  -10.5
H   -11.9   -4.5   -0.9
I    11.3   -3.9   -4.4
H     5.2   10.9    3.9
H     1.7    0.5   12.6
I     0.5  -11.6    5.3
