         400
 sphere cut out from bulk 
H    -0.2    0.9   -1.1
I    -1.3   -1.3   -0.5
N     0.2    1.9   -1.0
H     1.0    1.9   -0.4
H    -0.5    2.4   -0.5
H    -0.4   -1.3    2.4
C     0.4    2.5   -2.3
I     2.5    1.7    1.8
H     1.8   -0.6    3.1
H     1.2    1.9   -2.8
C     0.1   -1.9    3.1
I    -2.0    2.4    2.0
I     3.2   -1.8   -0.9
H     0.6   -2.7    2.6
H    -0.5    2.5   -2.9
P     0.5   -3.4   -1.9
P    -3.9    0.2    0.6
N     1.1   -1.0    3.8
H     0.8    3.5   -2.2
H     0.7   -0.2    4.3
H    -0.6   -2.2    3.9
I    -3.9    2.1   -2.0
I     0.6   -1.7   -4.7
H     1.7   -1.5    4.5
P     5.1    0.2    0.6
P     0.6    4.0    3.3
H    -2.7   -1.5   -4.3
I    -3.9   -1.6    3.3
I     0.6   -5.3    0.7
H     4.2   -1.2   -3.2
I     0.7    5.7    0.7
H    -3.1   -4.7    1.6
I     5.1    2.1   -2.0
H    -3.2    4.7    1.5
H     3.3   -1.5   -4.6
H    -4.8   -1.2   -3.2
H     4.0   -4.5    0.1
H    -3.5    1.8    4.6
N     4.2   -1.2   -4.2
I     0.7    1.9    5.8
I    -5.8   -1.8   -0.9
I    -1.9   -5.0   -3.1
H     4.0    4.8    0.0
H     4.3   -0.2   -4.5
C    -3.6   -1.9   -4.8
I     5.1   -1.6    3.3
I    -1.3    2.4   -5.8
N    -4.8   -1.2   -4.2
H    -3.7   -3.0   -4.5
H    -4.7   -0.2   -4.5
H    -3.6   -5.4   -0.7
H    -5.0   -4.5    0.1
H    -3.6    5.6   -0.7
N    -3.7   -5.5    1.4
N    -3.7    5.6    1.4
H    -5.0    4.8    0.0
C    -3.5    1.7    5.7
C    -4.4   -5.4    0.1
I    -6.5    1.7    1.8
I     2.5   -5.5   -3.5
I    -1.9    6.0   -3.1
H    -2.6    2.1    6.1
I    -1.3   -5.0    4.7
I     2.6    5.5   -3.5
H    -3.6    0.7    6.0
H    -3.6   -1.8   -5.8
C     4.6   -5.4    0.1
H     3.4    2.1    5.9
C    -4.4    5.6    0.1
I     3.2    1.8   -6.1
P    -3.9    4.0   -4.5
H    -3.0    6.3    1.6
P     0.6    0.3   -7.2
H    -3.2   -6.4    1.5
C     4.6    5.6    0.1
H     0.7   -3.8   -6.2
H    -4.4   -5.4    2.2
H     5.5    1.8    4.6
H     3.9   -6.3    0.0
H    -4.4    5.6    2.2
H    -5.7   -1.5   -4.6
H     4.6   -5.4    2.2
C     5.4   -1.9   -4.8
H     5.3   -3.0   -4.5
H     4.6    5.6    2.2
I     2.6   -1.9    6.9
H     5.9    4.7    1.5
H     5.4   -5.4   -0.7
I     3.3    5.4    4.4
I     7.0    2.4    2.0
H     4.1    6.6    0.1
H     5.9   -4.7    1.6
I    -1.3    6.0    4.7
N     5.3   -5.5    1.4
I    -1.9   -1.4    7.4
P     0.6   -7.1    3.3
H     6.3   -1.5   -4.3
H     0.8   -7.5   -2.2
I     7.7   -1.3   -0.5
H     5.4    5.6   -0.7
N     5.3    5.6    1.4
P     0.6    7.6   -1.9
I     3.2   -5.6    4.4
P    -3.9   -3.4    5.9
H    -7.2   -0.6    3.1
P     5.1    4.0   -4.5
N     4.3    2.5    6.2
H     1.6   -5.1   -6.0
H    -5.1   -6.3    0.0
C     5.5    1.7    5.7
H     5.4    0.7    6.0
H     4.3    3.5    6.0
H     5.4   -1.8   -5.8
H    -8.0    1.9   -0.4
N    -4.7    2.5    6.2
N     1.1   -4.6   -6.7
H    -4.9    6.6    0.1
H    -4.7    3.5    6.0
H    -0.6    5.2   -6.6
H    -5.6    2.1    5.9
H    -7.8    1.9   -2.8
H     1.7    5.9   -6.0
I    -5.8    1.8   -6.1
P     5.2   -3.4    5.9
P     0.6    0.2    8.6
H    -0.6   -8.6   -0.5
H     1.8   -4.2   -7.4
H    -7.3   -1.5    4.5
H     4.2    2.4    7.3
H     0.7    8.3    2.6
H     5.8   -6.4    1.5
I    -2.0   -1.2   -8.5
N    -7.9   -1.0    3.8
C     0.4   -8.5   -2.3
H     8.5    2.4   -0.5
H    -0.6   -5.9   -6.6
H     6.0    6.3    1.6
H     8.8    0.9   -1.1
H    -0.5   -8.5   -2.9
H     8.6   -1.3    2.4
I    -5.7    5.4    4.4
H    -4.8    2.4    7.3
H    -0.5   -4.9    7.6
I    -2.0   -8.6    2.0
N    -8.8    1.9   -1.0
H     6.4    2.1    6.1
N     0.2   -9.1   -1.0
I    -5.8   -5.6    4.4
C     0.1   -5.5   -7.3
H     0.6    4.7   -7.8
H    -8.4   -2.7    2.6
I    -6.5   -5.5   -3.5
I     7.1   -5.0   -3.1
I    -6.4    5.5   -3.5
H    -8.2    3.5   -2.2
H     0.8   -3.9    8.3
C     0.1    5.5   -7.3
H     1.0   -9.1   -0.4
C    -8.6    2.5   -2.3
I     2.4   -1.9   -8.7
P    -3.9   -7.1   -4.5
H    -9.2    0.9   -1.1
N     1.1    6.4   -6.7
P    -8.5   -3.4   -1.9
H     8.5    2.5   -2.9
H    -8.3   -0.2    4.3
N     9.2    1.9   -1.0
H    -0.5   -4.9   -8.1
H     1.2   -5.5    7.6
C     0.5   -4.9    8.2
H     0.7    7.2   -6.2
H     1.2    5.5    7.6
H    -3.2    1.1   -8.9
H    -4.4    2.0   -8.2
H     8.4   -2.2    3.9
H     1.2   -9.1   -2.8
C    -8.9   -1.9    3.1
H    -0.5    8.8    3.9
H     4.6    2.0   -8.2
I    -6.4   -1.9    6.9
C     0.1    9.2    3.1
I    -8.4   -1.7   -4.7
I    -3.9   -5.2   -7.2
I     2.4   -9.3    1.8
H    -0.4    6.1    7.6
I     3.2    9.2   -0.9
H    -3.1    2.7   -8.9
I     7.1    6.0   -3.1
H    -9.4   -1.3    2.4
C     9.1   -1.9    3.1
P     5.1   -7.1   -4.5
I    -1.3    9.7   -0.5
P    -8.4    4.0    3.3
H    -9.5    2.4   -0.5
I     7.7    2.4   -5.8
H    -3.6    8.1   -4.5
I    -8.4   -5.3    0.7
N    -3.7    1.9   -9.0
I    -4.0   -9.0   -2.0
I    -3.9    5.8   -7.2
H    -0.4    9.8    2.4
C     9.5    2.5   -2.3
I     0.6    2.1   -9.8
H     0.6   -6.3   -7.8
I    -8.3    5.7    0.7
H    -0.2  -10.1   -1.1
H    -0.4    6.1   -8.1
H     1.8    6.8   -7.4
C     0.5    6.1    8.2
I     3.2    1.8    9.5
H    10.0    1.9   -0.4
H    -9.5    2.5   -2.9
I     5.1   -5.2   -7.2
I     7.7   -5.0    4.7
I    -1.3    2.3   10.0
I    -8.3    1.9    5.8
P     9.6   -3.4   -1.9
I     7.1   -1.4    7.4
P    -3.8    7.6    5.9
H     9.6   -2.7    2.6
I   -10.3   -1.3   -0.5
H    -0.1    4.5    9.4
I     5.0   -9.0   -2.0
I    -1.4   -8.6   -5.8
I     0.7    9.4   -4.7
H     4.3   -7.6    6.0
I     5.1    5.8   -7.2
H    -9.6   -2.2    3.9
H    -3.6   -1.8    9.8
H     9.7   -0.2    4.3
N     5.3    1.9   -9.0
H     9.8    3.5   -2.2
H     1.7    9.5    4.5
H     5.4    8.1   -4.5
I    -3.9    9.4    3.3
H     5.8    1.1   -8.9
H    -4.7   -7.6    6.0
I    -3.9   -5.3    8.5
N     1.2   10.0    3.8
I     0.6   -9.1    5.8
H    -7.4   -5.1   -6.0
H    10.2    1.9   -2.8
H    -2.6    9.5   -4.3
I     7.7    6.0    4.7
I     9.6   -1.7   -4.7
C    -3.5    9.1   -4.8
N    10.1   -1.0    3.8
I    -5.8    9.2   -0.9
P     9.6    4.0    3.3
P     5.2    7.6    5.9
I    -3.9    5.7    8.5
H    -3.6   -9.2    4.6
N     0.2   -5.5    9.5
N     0.2    5.5    9.5
H     0.8    7.2    8.3
H    -0.6   -1.2  -10.9
I     9.6   -5.3    0.7
H     5.9    2.7   -8.9
I     7.0   -1.2   -8.5
H     1.8   10.4    3.1
H     1.0   -1.7  -10.9
H     3.4    9.5   -4.6
I    -6.6   -1.9   -8.7
H    -8.3   -3.8   -6.2
P    -8.4    0.3   -7.2
H    -2.7   -8.9    6.1
H    -7.3    5.9   -6.0
H     4.2    9.8   -3.2
P    -4.0   -3.4   -9.8
H    -7.2   -4.2   -7.4
H    -0.5   -5.0   10.0
I     5.1    9.4    3.3
H     3.4   -8.9    5.9
H     3.9    1.2  -10.5
I     5.1   -5.3    8.5
H    10.8   -0.6    3.1
I     9.7    5.7    0.7
I     7.0   -8.6    2.0
I     0.7   -1.7   11.1
I    -5.8    1.8    9.5
H     4.1   -0.9   10.5
H    -8.2   -7.5   -2.2
N    -7.9   -4.6   -6.7
H     5.4   -1.8    9.8
H    -4.8    9.8   -3.2
N     4.3   -8.6    6.2
I     5.1    5.7    8.5
H    -0.2   -6.5    9.4
I   -11.0    2.4    2.0
C    -4.4    2.0  -10.4
I     9.7    1.9    5.8
H    -3.5    9.2   -5.8
P    -8.4   -7.1    3.3
P    -8.4    7.6   -1.9
I    -6.6   -9.3    1.8
C    -3.6   -9.3    5.7
C     4.6    2.0  -10.4
I     3.2   -9.2   -6.1
H     4.0   -2.6   10.5
H     4.0    2.9  -10.4
H     1.1    5.5   10.1
P    -4.0  -10.8    0.6
H     1.0   -5.5   10.1
N     4.3    9.9   -4.2
P     5.0   -3.4   -9.8
N     0.2   -1.7  -11.5
C    -4.4   -1.8   10.6
N    -4.8   -8.6    6.2
C     5.5    9.1   -4.8
H     0.7   10.8    4.3
H    -4.9   -0.9   10.5
H    -5.1    1.2  -10.5
H     5.4   -9.2    4.6
H    10.7   -1.5    4.5
C     4.6   -1.8   10.6
H    -0.5    6.0   10.0
N    -4.7    9.9   -4.2
I    11.5    1.7    1.8
I     2.6    9.1    6.9
H    -0.2   -2.7  -11.5
H     8.4    5.2   -6.6
H    -3.6    2.0  -11.1
P    -3.9   11.2    0.6
H    -5.0    2.9  -10.4
H    -5.0   -2.6   10.5
H    -5.6    9.5   -4.6
P     5.0  -10.8    0.6
P     9.6    0.3   -7.2
H    -0.1   11.9   -1.1
P    -8.4    0.2    8.6
H     0.7  -11.2    4.3
H     4.2   -8.6    7.3
H     8.4   -8.6   -0.5
H    -8.3    8.3    2.6
I    -1.3   -4.9  -11.0
I   -10.4    2.4   -5.8
H     9.7   -3.8   -6.2
H    -5.7   -8.9    5.9
H     1.8  -11.6    3.1
H    -8.0   -9.1   -0.4
N    -7.9    6.4   -6.7
H     8.4   -5.9   -6.6
H     5.5    9.2   -5.8
H    -7.8   -5.5    7.6
C     5.4   -9.3    5.7
H    -7.8    5.5    7.6
H     6.4    9.5   -4.3
H    -4.8   -8.6    7.3
I    -1.9    9.6    7.4
C    -8.6   -8.5   -2.3
H    -8.2   -3.9    8.3
H    -7.8   -9.1   -2.8
P     5.1   11.2    0.6
I    12.2   -1.8   -0.9
H     8.5   -8.5   -2.9
P     9.6   -7.1    3.3
P    -3.9    3.8   11.1
H    -7.2    6.8   -7.4
P     9.6    7.6   -1.9
I    -1.3  -12.3   -0.5
H    -8.4    4.7   -7.8
H     8.5   -4.9    7.6
I   -10.4   -5.0    4.7
I   -11.0   -5.0   -3.1
I     7.7    9.7   -0.5
H    -3.0   -1.1   12.1
H     9.8   -7.5   -2.2
I    -5.8   -9.2   -6.1
H     6.3   -8.9    6.1
H     4.3   10.9   -4.5
H     5.4    2.0  -11.1
H    -0.5  -12.3    2.4
H    -3.1   -8.3   -8.9
H    -3.7  -10.4    6.0
H   -11.7   -1.5   -4.3
N    -3.7   -1.9   11.9
H    -8.3    7.2   -6.2
I    -1.3    6.1  -11.0
N     1.1  -12.0    3.8
H     0.8   -0.1  -12.6
H    -4.7   10.9   -4.5
H    -9.6    5.2   -6.6
H    -3.1   -2.7   12.0
H     8.5   -4.9   -8.1
N    -8.8   -9.1   -1.0
H     4.2  -11.2   -4.5
C    -8.6   -4.9    8.2
C    -8.9    5.5   -7.3
C    -8.9   -5.5   -7.3
P     5.1    3.8   11.1
H    -7.3    9.5    4.5
H     8.5    8.8    3.9
I   -10.3    6.0    4.7
I   -10.9    6.0   -3.1
C     0.4   -1.1  -12.8
I     7.7    2.3   10.0
P     9.6    0.2    8.6
H    -9.6   -8.6   -0.5
I     2.5    9.1   -8.7
P     0.6  -10.7   -7.2
