         400
 sphere cut out from bulk 
I    -0.1   -0.1    0.1
H     1.4    0.8    2.0
P    -2.8    1.6   -0.0
H     2.0    0.6   -2.4
P     1.6   -2.8   -0.0
H     0.9    2.0   -2.3
C     1.4    1.3   -3.0
N     2.0    1.4    2.5
H     0.6    0.7   -3.5
H     2.4    2.1    1.8
H     2.8    0.9    2.9
H     0.5    2.7    3.2
H    -1.7   -2.0   -3.4
C     1.3    2.1    3.6
I     4.4   -1.0    0.0
I    -1.1    4.4   -0.0
H    -2.8   -1.5    3.3
I    -2.8    1.8   -3.2
I     1.9   -2.7   -3.2
H     1.0    1.4    4.3
I     1.8   -2.9    3.2
H    -1.5   -2.8    3.4
I    -4.6   -1.0    0.0
I    -1.2   -4.5   -0.0
H    -3.6   -2.3   -1.9
I    -2.9    1.9    3.2
I     3.5    3.5   -0.1
H    -2.7   -3.7   -2.0
N     2.2    2.0   -4.0
H    -3.2   -3.4    1.8
C    -2.6   -2.5    3.6
N    -3.3   -3.1   -2.6
C    -2.5   -2.5   -3.7
H     3.0    2.5   -3.6
H     2.1    2.8    4.1
H     2.6    1.3   -4.7
H     1.6    2.6   -4.6
N    -3.4   -3.5    2.8
H    -3.2   -1.9   -4.3
H    -2.2   -3.4   -4.4
H    -2.8   -2.6    4.7
H     5.3   -2.3   -1.9
H    -4.1   -3.6   -2.9
H    -2.6    5.3   -2.0
H    -4.5   -3.2    3.0
H     4.5   -3.2    3.0
H    -3.3   -4.4    3.1
H    -3.2    4.5    3.1
P     1.7    6.2   -0.0
P     6.2    1.6   -0.0
I    -0.3   -0.2    6.4
I    -0.7   -0.7   -6.3
I     3.4   -5.5   -0.1
I    -5.5    3.5   -0.1
H     4.8   -3.6   -2.9
H    -3.1    5.6    1.8
H    -6.1    0.9    2.9
H     5.7   -3.4    1.8
N     5.6   -3.1   -2.6
I     6.0    1.9    3.2
H     0.4   -6.3    3.2
H    -6.5    2.1    1.8
N    -3.3    5.5    2.8
N     5.5   -3.5    2.8
H     6.1   -1.5    3.3
P    -2.5    1.8   -6.4
I     6.1    1.8   -3.2
P     1.7   -2.7    6.4
I     1.9    6.1    3.2
P     1.8   -2.7   -6.4
N    -3.2    5.9   -2.6
P    -2.8    1.7    6.4
H    -1.4    6.2    3.4
I     2.0    6.3   -3.2
H    -4.0    5.4   -2.9
H    -6.9    0.6   -2.4
I     0.0    3.7   -6.3
H     0.8   -6.9   -2.3
H    -6.0    2.5   -3.6
H     5.7   -1.9   -4.3
H    -2.1    5.6   -4.4
N    -6.9    1.4    2.5
H     2.3   -6.9    1.8
I     3.8   -0.1   -6.5
H     6.2   -3.7   -2.0
H     2.0   -6.2    4.1
C     6.3   -2.5    3.6
I    -0.9    4.3    6.3
H    -3.5    6.7   -1.9
I     4.2   -0.9    6.5
H    -4.4    5.7    3.0
C    -2.5    6.5    3.6
H    -7.5    0.8    2.0
C     6.4   -2.5   -3.7
I    -5.6   -5.5   -0.1
H     5.6   -4.4    3.1
H     4.9    5.4   -2.9
C    -2.4    6.4   -3.7
C     1.2   -6.8    3.6
P    -2.9   -7.3   -0.0
P    -7.4   -2.8   -0.0
H     4.6    5.7    3.0
H    -6.3    1.3   -4.7
H     2.9   -6.5   -3.6
H    -1.6    7.0   -3.4
I    -1.0   -4.7    6.3
H     5.7    4.5    3.1
H     1.5   -6.4   -4.6
I    -4.7   -0.9    6.5
N    -6.7    2.0   -4.0
H     6.1   -2.6    4.7
N     2.0   -7.5    2.5
I    -7.1   -2.7   -3.2
C    -7.5    1.3   -3.0
I    -0.1   -5.3   -6.3
H     7.2   -2.0   -3.4
H     5.8    5.6    1.8
I    -5.1   -0.1   -6.5
I    -7.1   -2.9    3.2
I     3.6    3.7    6.5
H    -2.7    6.4    4.7
N     5.6    5.5    2.8
N     2.1   -7.0   -4.0
C     1.3   -7.7   -3.0
I    -3.0   -7.1    3.2
I    -2.9   -7.2   -3.2
H     1.3   -8.1    2.0
H    -6.9    2.8    4.1
H     6.3    5.3   -2.0
H    -8.0    2.0   -2.3
H     1.9    1.9   -8.1
H     7.4   -2.8    3.4
H    -2.7    7.5    3.3
N     5.7    5.9   -2.6
C    -7.6    2.1    3.6
H     6.7   -3.4   -4.4
H     2.1    1.0    8.4
H     0.9   -7.6    4.3
H     5.4    6.7   -1.9
I     8.8   -0.1    0.1
H    -3.1    7.1   -4.3
I    -0.0    8.9    0.1
H     1.9   -8.4   -2.4
I     4.4    4.3   -6.4
H     1.1    2.5    8.5
I    -4.5    4.3   -6.4
H    -3.1   -2.0    8.2
I     7.8   -4.5   -0.0
H     0.5   -8.3   -3.5
P     6.1    1.7    6.4
H    -7.3    2.6   -4.6
I     7.9    4.4   -0.0
H    -2.1   -3.3    8.1
H     2.7   -8.1    2.9
I    -9.0   -0.1    0.1
I     4.3   -4.6   -6.4
H    -8.3    0.7   -3.5
I     3.5   -5.3    6.5
I    -0.2   -9.1    0.1
H    -2.2   -1.6   -8.7
P     1.7    6.2    6.4
I     4.5    8.0    0.0
I    -4.5    8.0    0.0
I    -5.3    3.7    6.5
H    -8.0    1.4    4.3
I    -4.6   -4.6   -6.4
P     1.9    6.3   -6.4
P     6.4    1.8   -6.4
H     2.5   -7.7   -4.7
H    -8.4    2.7    3.2
C     1.8    1.9    9.1
N    -2.5   -2.6    8.8
P     6.1   -7.3   -0.0
P    -7.3    6.2   -0.0
H    -6.1   -6.5   -3.6
H    -1.8   -2.0    9.2
H    -3.3   -3.0   -8.5
C     2.1    2.0   -9.2
H    -6.6   -6.9    1.8
I     5.9   -7.1    3.2
C     6.4    6.5    3.6
H     1.5    0.1   -9.7
I    -7.0    6.1    3.2
H     6.8    5.6   -4.4
I    -7.0    6.3   -3.2
C     6.5    6.4   -3.7
C    -3.0   -2.3   -9.2
H     0.3    1.3   -9.8
P    -7.1   -2.7   -6.4
I    -5.4   -5.3    6.5
I     6.0   -7.2   -3.2
P    -2.6   -7.2   -6.4
H     0.2    0.8    9.9
H     6.2    6.4    4.7
P    -7.3   -2.7    6.4
I    -2.4    1.7   -9.6
H     3.2    1.8   -9.4
H     2.6    2.4    9.4
P    -2.9   -7.2    6.4
I     1.7   -2.6   -9.6
N     1.3    1.1  -10.0
I     1.4   -2.8    9.6
H     2.1    9.6   -2.4
H     1.5    9.8    2.0
H    -2.0    5.7    8.1
H     5.8    7.1   -4.3
I    -2.8    1.7    9.6
H     9.5    0.7   -3.5
H    -7.0   -6.2    4.1
H     1.9    3.1   -9.5
H     5.8   -2.0    8.2
H     6.2    7.5    3.3
H     7.5    6.2    3.4
H     9.8    2.0   -2.3
H     0.7    9.7   -3.5
H     9.4    2.7    3.2
N     1.0    1.3   10.2
I    -0.6    8.3   -6.3
I     8.3   -0.7   -6.3
H    -3.8   -1.7   -9.6
H    10.3    0.8    2.0
N    -7.0   -7.5    2.5
N    -6.8   -7.0   -4.0
H    -6.2   -8.1    2.9
H     5.6   -3.0   -8.5
H     2.9    9.8    2.9
H    -1.5   -3.6  -10.0
H     7.3    7.0   -3.4
H     1.0   -6.4    8.5
I     8.6   -0.2    6.4
C     1.5   10.3   -3.0
C    10.3    1.3   -3.0
H    -7.4   -6.4   -4.6
I    -0.2    8.8    6.4
P    10.5   -2.8   -0.0
H     9.9    1.4    4.3
H    -3.2    5.9   -8.5
I     4.3  -10.0    0.0
C    -3.3   -3.3    9.8
H    -4.1   -3.9    9.3
C    -7.7   -6.8    3.6
H    -6.8    1.0    8.4
H    -7.0    1.9   -8.1
I   -10.0    4.4   -0.0
H     1.8   -7.0   -8.1
H    -8.1   -6.9   -2.3
N     2.1   10.4    2.5
P    -2.7   10.6   -0.0
N    -2.2   -3.0  -10.3
H     1.6    0.7   10.8
H    -8.5   -6.3    3.2
H     5.1   -1.7   -9.6
H    -6.4   -7.7   -4.7
I    -4.7  -10.0    0.0
I   -10.1   -4.5   -0.0
H     6.7   -1.6   -8.7
C    10.3    2.1    3.6
H     0.7    2.1   10.9
I     8.1    4.3    6.3
H     6.8   -3.3    8.1
N    -2.4    6.4    8.8
H     1.5    1.2  -11.0
H    -5.7    1.8   -9.4
H    -7.0   -8.4   -2.4
H     4.8   -3.9    9.3
N     6.4   -2.6    8.8
C     6.0   -2.3   -9.2
H    -3.0    7.0    8.2
I    -0.4   -9.2    6.4
I    -9.2   -0.2    6.4
I     8.0   -4.7    6.3
H    10.9    0.6   -2.4
C    -7.6   -7.7   -3.0
I     4.3    8.1    6.5
H     1.1   10.4    4.3
H   -10.6   -2.0   -3.4
H     1.0   11.0   -2.3
H    -7.6   -8.1    2.0
H   -10.5   -2.8    3.4
N    11.0    1.4    2.5
H    -2.9  -10.5    3.3
H    -4.0    5.1    9.3
H     1.8   -5.9   -9.5
I    -4.6    8.1    6.5
H    -1.8   -2.3  -11.0
P     6.0   -7.2    6.4
P    -7.0    6.3   -6.4
H    -3.8   -2.5   10.5
H    -1.4    5.4  -10.0
H    -2.7   -3.9   10.4
P    -7.2    6.2    6.4
P     6.3   -7.2   -6.4
I    -9.6   -0.7   -6.3
I    -8.9    3.7   -6.3
I    -2.7   10.7   -3.2
I     1.5    6.2    9.6
H     2.5   11.1    1.8
I     6.2    1.7    9.6
I    10.8   -2.7   -3.2
I    10.7   -2.9    3.2
I     9.0    3.7   -6.3
H    -2.1    7.4   -8.7
I    -0.8   -9.7   -6.3
H    -6.3    2.4    9.4
H    -1.8  -11.0   -3.4
H     2.7   10.3   -4.7
C    -6.8    2.0   -9.2
I     3.9    8.9   -6.5
C     1.7   -7.1    9.1
I    -2.8   10.8    3.2
H    -1.7    6.9    9.2
H     9.3   -6.3    3.2
H     4.9    5.1    9.3
C     2.0   -6.9   -9.2
H    11.4    2.1    1.8
C    -7.2    1.9    9.1
I     1.8    6.4   -9.6
C    -2.9    6.7   -9.2
H     2.5   -6.5    9.4
I     3.7   -9.1   -6.5
C     5.6   -3.3    9.8
H     2.0   -7.9    8.4
I     6.6    1.7   -9.6
H    10.5    2.6   -4.6
C     1.4   11.1    3.6
H    -2.9   -3.6  -10.9
P   -11.7    1.6   -0.0
C    -3.2    5.7    9.8
H     5.7    5.9   -8.5
H    -7.8    2.5    8.5
H     7.2   -2.0    9.2
H    -2.6    5.0   10.4
H    -6.0    9.8    2.9
H    -8.1   -7.6    4.3
N     2.3   11.0   -4.0
P     1.5  -11.8   -0.0
H     5.1   -2.5   10.5
N    11.1    2.0   -4.0
H    -6.8    9.6   -2.4
H    -3.7  -11.3   -1.9
H    11.0    2.8    4.1
I    -5.0    8.9   -6.5
I     8.9   -5.3   -6.3
N    -2.1    6.0  -10.3
H    11.7    0.9    2.9
H     6.9    5.7    8.1
H    -3.3  -10.9   -4.3
H     0.6   11.7    3.2
I    -9.0   -5.3   -6.3
H     9.7   -6.9   -2.3
H    -7.0    3.1   -9.5
H     3.1   -7.2   -9.4
P    10.6    6.2   -0.0
I   -11.7    1.8   -3.2
H    -7.5    0.1   -9.7
H   -11.7   -1.5    3.3
I     1.8  -11.7   -3.2
H     5.9    7.0    8.2
C   -11.4   -2.5   -3.7
C   -11.5   -2.5    3.6
H    -8.4   -8.3   -3.5
I    -7.2   -2.6   -9.6
H   -11.6   -3.7   -2.0
I    -2.5   -7.3   -9.6
P     6.3   10.6   -0.0
I    -5.2   -9.1   -6.5
H    -1.6  -11.7    3.4
C    -2.7  -11.5    3.6
I     1.7  -11.8    3.2
C    -2.6  -11.5   -3.7
I    -2.9   -7.3    9.6
H   -11.1   -3.4   -4.4
I    -9.8    4.3    6.3
I   -11.9    1.9    3.2
H     3.1   11.5   -3.6
H    -2.8    5.4  -10.9
H     0.2   -7.7   -9.8
H    -7.4    9.8    2.0
I     4.1   -9.8    6.5
I    -7.5   -2.8    9.6
H     6.0  -10.5    3.3
H    11.6    1.3   -4.7
H   -10.4    6.2    3.4
I     8.9    8.9    0.1
H     1.7   11.6   -4.6
I    -8.9    8.9    0.1
I     8.7   -9.1    0.1
H     5.2  -11.3   -1.9
H    -3.7    7.3   -9.6
N    -7.6    1.1  -10.0
N     6.7   -3.0  -10.3
I    -9.9   -4.7    6.3
P    10.6   -2.7    6.4
H    11.9    2.5   -3.6
H     2.2   11.8    4.1
N     6.5    6.4    8.8
N    -6.8   10.4    2.5
C     5.7    5.7    9.8
I    -4.8   -9.8    6.5
H     6.2   -3.9   10.4
