         400
 sphere cut out from bulk 
H     0.4    1.7    1.1
H    -1.9   -1.0    1.1
I    -1.1    0.0   -2.2
I     1.5   -1.9    1.1
C     1.3    2.3    1.5
C    -2.6   -1.6    0.7
P     1.6   -1.9   -2.1
H    -2.2   -2.4    0.1
H     2.3    2.2   -0.3
H     2.0    1.7    2.0
H    -3.3   -1.0    0.1
N     2.0    2.9    0.3
H     1.3    3.5   -0.3
H     0.9    3.1    2.1
I     3.4    0.9   -2.2
I    -3.1    2.6    1.1
I    -0.5    0.6    4.3
P    -2.8    2.7   -2.1
N    -3.4   -2.2    1.8
H     2.8    3.5    0.6
H    -2.8   -2.8    2.4
H    -3.9   -1.5    2.4
P     1.3   -2.0    4.2
I    -0.3   -4.5   -2.1
I    -0.2    4.6   -2.1
H    -2.1   -0.7   -4.5
H    -4.2   -2.8    1.4
H     2.2    1.6   -4.5
H     0.8    1.9   -5.3
H     4.7   -2.8    1.4
H     5.6   -1.0    0.1
H     1.2   -5.6   -0.3
H     5.0   -1.5    2.4
P    -3.1    2.5    4.2
I     4.0   -0.1    4.2
I     1.6   -1.8   -5.3
I    -1.4   -3.8    4.3
I     4.1   -3.8   -2.0
N     1.8    2.0   -5.3
N    -2.6   -1.2   -5.3
I    -5.6    0.9   -2.2
H    -3.0   -3.0   -4.4
H     1.6    3.9   -4.4
N     5.5   -2.2    1.8
H     2.7   -5.6    0.6
H    -1.5   -2.9   -5.3
H     0.8   -6.0    2.1
I    -4.8   -3.8   -2.0
C    -2.5   -2.6   -5.3
N     1.9   -6.2    0.3
H    -3.6   -0.8   -5.3
I    -4.9   -0.1    4.2
I     5.8    2.6    1.1
C     6.3   -1.6    0.7
I    -2.8    2.7   -5.3
H    -2.2   -0.8   -6.2
C     2.1    3.5   -5.3
H     2.2    1.6   -6.2
H     1.3    1.4    6.5
I    -1.3    5.3    4.3
H     1.5   -5.1   -4.4
H    -6.6    2.2   -0.3
I     3.2    4.4    4.3
P     6.1    2.7   -2.1
C     1.2   -6.8    1.5
H    -2.1    6.7    0.1
I     3.1   -4.7    4.3
I     4.2    5.3   -2.0
H    -6.2    3.5    0.6
H     6.1   -2.8    2.4
H     6.7   -2.4    0.1
H     3.1    3.7   -5.3
H     7.0   -1.0    1.1
H    -3.1   -0.7    6.5
H     2.2   -6.9   -0.3
H    -2.7    6.3    2.4
I    -3.2   -6.5    1.1
P    -2.9   -6.4   -2.1
I    -4.7    5.3   -2.0
H    -6.9    1.7    2.0
I     1.6    7.2    1.1
H     0.4   -7.4    1.1
H    -3.0   -3.0   -6.2
H     1.6    4.0   -6.2
N    -6.9    2.9    0.3
H     5.3   -0.8   -5.3
H    -4.1    6.3    1.4
H    -1.6   -1.0    7.4
P     5.9    2.5    4.2
H    -2.5   -3.1    6.5
P     1.6    7.2   -2.1
I    -7.4   -1.9    1.1
H     2.1    3.6    6.5
I     1.4   -2.0    7.4
C     1.8    1.8    7.4
N    -3.3    6.9    1.8
P    -7.4   -1.9   -2.1
H     1.9   -7.4    2.0
H     5.9   -3.0   -4.4
C    -2.6   -1.2    7.4
C    -2.5    7.5    0.7
C     2.0   -5.6   -5.3
H     4.8    6.3    1.4
H    -2.9    6.1   -4.4
H     2.8    1.5    7.4
C    -7.6    2.3    1.5
H     6.8   -0.7   -4.5
I     7.9    0.0   -2.2
H     1.5   -5.1   -6.2
H     3.0   -5.4   -5.3
H    -6.7    1.6   -4.5
H     0.7    3.6    7.4
N     1.7    3.3    7.4
H    -1.4    6.2   -5.3
N     6.3   -1.2   -5.3
N    -2.9   -2.6    7.4
H    -7.6    3.5   -0.3
I    -5.7    4.4    4.3
H    -6.2   -5.6    0.6
H    -1.8    8.1    1.1
I    -3.1    2.6    7.4
P     1.4    7.1    4.2
P    -3.1   -6.6    4.2
I    -1.1    0.0   -8.4
I     6.1    2.7   -5.3
H     1.3    1.4    8.3
I    -5.8   -4.7    4.3
H    -5.8    3.7   -5.3
C     6.4   -2.6   -5.3
C    -2.4    6.5   -5.3
H    -8.5    1.7    1.1
I     5.8   -6.5    1.1
H    -3.2    8.1    0.1
H     2.0   -5.5    6.5
H     5.8   -0.7    6.5
H    -3.8    7.6    2.4
I    -2.9   -6.4   -5.3
P     1.6   -1.9   -8.5
H    -3.9   -2.8    7.4
H    -8.0    3.1    2.1
H    -3.1   -0.7    8.3
P    -7.6   -2.0    4.2
H     2.1   -7.5   -4.5
N     1.7   -7.0   -5.3
H     0.7   -7.2   -5.3
P     6.0   -6.4   -2.1
N     5.6    6.9    1.8
H     5.9   -3.0   -6.2
I     3.3    0.9   -8.4
N    -7.1    2.0   -5.3
H    -2.9    6.1   -6.2
H     6.2    6.3    2.4
I     3.3   -8.2   -2.2
I     1.7    7.3   -5.3
H    -2.5   -3.1    8.2
H     6.7   -0.8   -6.2
H    -2.4    6.0    6.5
H     0.6   -5.5    7.4
I    -7.3   -1.8   -5.3
H     2.1    3.7    8.2
H    -6.7    1.6   -6.2
H     5.0   -2.8    7.4
C    -6.8    3.5   -5.3
P    -2.9    2.7   -8.5
N    -7.0   -6.2    0.3
H    -7.3    3.9   -4.4
I    -1.1   -9.1   -2.2
I     8.4    0.6    4.3
H     5.1    7.6    2.4
I    -1.0    9.1   -2.2
I     7.5   -3.8    4.3
I    -0.6   -8.5    4.3
H    -7.7   -5.6   -0.3
N     1.6   -5.8    7.4
H     7.4   -2.9   -5.3
H     9.4    1.7    1.1
H     6.8    6.7    0.1
H     6.0    6.1   -4.4
H    -6.7   -6.9   -0.3
H    -5.9   -5.4   -5.3
I    -0.3   -4.5   -8.5
I    -0.2    4.6   -8.5
H     6.4   -3.1    6.5
H    -2.1    8.3   -4.5
P     5.8   -6.6    4.2
H    -6.1    1.5    7.4
C     6.3   -1.2    7.4
I     5.9    2.6    7.4
N     6.0   -2.6    7.4
C     6.4    7.5    0.7
N    -2.5    7.9   -5.3
H    -8.1    1.9   -5.3
H     5.7    8.1    0.1
H     2.1   -7.5   -6.2
I     8.6   -4.5   -2.1
H    -7.4   -5.1   -4.4
I     8.7    4.6   -2.1
H     2.1   -5.4    8.2
H    -6.8    3.6    6.5
I     4.1   -3.8   -8.4
I    -5.6    0.9   -8.4
H    -7.7    1.4    6.5
H     5.8   -0.7    8.3
H     1.2   -7.7    6.5
I   -10.0    0.0   -2.2
N    -2.8    6.5    7.4
I     7.6    5.3    4.3
I    -5.6   -8.2   -2.2
I     6.0   -6.4   -5.3
H    -8.1   -6.0    2.1
I    -7.3    7.2    1.1
H    -2.0  -10.1    1.1
I    -9.4    0.6    4.3
I    -3.1   -6.5    7.4
H    -7.3    4.0   -6.2
I     1.5    7.1    7.4
C    -6.9   -5.6   -5.3
H    -7.0   -7.4    2.0
C    -7.7   -6.8    1.5
I    -9.1    4.6   -2.1
I    -4.8   -3.8   -8.4
H    -3.5    8.3   -5.3
H    -3.9    6.3    7.4
C    -7.2    1.8    7.4
I    -9.2   -4.5   -2.1
H     7.3   -1.0    7.4
P    -7.3    7.2   -2.1
H    -2.4    6.0    8.2
H     6.0    6.1   -6.2
H     9.8    3.1    2.1
C    10.2    2.3    1.5
C     6.5    6.5   -5.3
C     1.7   -7.3    7.4
H    -2.1    8.3   -6.2
I    -0.4    9.7    4.3
I    10.4   -1.9    1.1
H     1.9    1.9  -10.3
H    -3.4  -10.1    0.1
I    -0.5    0.7   10.6
I     4.1    9.0    4.2
I    -7.5   -2.0    7.4
P     6.0    2.7   -8.5
I     3.4   10.0   -2.2
H    10.2    3.5   -0.3
H     0.8    3.2  -10.3
I     4.2    5.3   -8.4
P    10.5   -1.9   -2.1
N    -7.2    3.3    7.4
I     3.9   -9.2    4.2
P     1.4   -2.0   10.6
H     6.4   -3.1    8.2
H   -10.8   -1.0    1.1
H     7.1    8.1    1.1
H     0.5   10.8    1.1
H    -7.4   -5.1   -6.2
H    -6.9   -5.5    6.5
H     5.1    6.3    7.4
H     2.7   -7.6    7.4
H     6.5    6.0    6.5
P    -3.0   -6.4   -8.5
H    -3.0    8.4    6.5
I    -4.7    5.3   -8.4
H    -1.5    8.1    7.4
I    -4.8    9.0    4.2
H    -2.2   -9.8   -4.5
C    -2.7  -10.7    0.7
H     7.5    6.2   -5.3
H    -6.8   -7.5   -4.5
C    -2.6    7.9    7.4
I     1.4  -11.0    1.1
P    -7.5    7.1    4.2
H     9.7    1.9   -5.3
H    -3.4   -1.3  -10.6
H     2.1   10.8    2.0
H     5.4    8.3   -5.3
H    10.9    1.7    2.0
I    -1.4   -3.8   10.5
H    -2.3   -2.7  -10.7
P     1.7    7.2   -8.5
P    10.2   -2.0    4.2
P     1.5  -10.9   -2.1
H    -6.8    3.7    8.2
N    10.9    2.9    0.3
N     1.3    2.4  -10.9
I    -5.0   -9.2    4.2
P    -3.1    2.6   10.6
H   -11.1   -2.4    0.1
H    -8.6   -7.4    1.1
I     4.0   -0.1   10.6
P    -7.3   -1.9   -8.5
H     1.2   -7.7    8.3
H    -7.6    1.4    8.3
N    -7.2   -7.0   -5.3
I     5.8   -6.5    7.4
H    11.2    2.2   -0.3
H     0.5    1.8  -11.3
N     6.4    7.9   -5.3
I     7.8    0.0   -8.4
H     5.5  -10.1    0.1
N     6.1    6.5    7.4
I    -7.3    7.3   -5.3
H    10.1   -5.6   -0.3
H     2.4   11.3   -0.3
I    -5.5   10.0   -2.2
H    -4.0  -10.6    2.4
H     9.7   -6.0    2.1
C     1.4   11.4    1.5
H    -8.2    3.6    7.4
C   -11.5   -1.6    0.7
H     6.9    8.3   -4.5
H    -2.3  -11.5    0.1
I    -4.9   -0.1   10.6
I   -10.3   -3.8    4.3
I    -1.3    5.3   10.5
C    -3.0   -2.1  -11.2
I     3.2    4.4   10.4
H     2.3   10.7   -4.5
H    -6.8   -7.5   -6.2
H    -3.7   -9.9   -5.3
I     3.1   -4.6   10.4
N    -2.7  -10.2   -5.3
H    -2.3   -9.9   -6.2
I     1.6   -1.8  -11.6
I    10.5   -1.8   -5.3
P     1.2  -11.1    4.2
H     9.3   -7.4    1.1
H     0.7   -5.9  -10.3
N    -7.3   -5.8    7.4
H     4.9  -10.6    2.4
H   -11.1   -0.7   -4.5
H     5.5   -1.3  -10.6
H    -6.9   -5.4    8.2
N    -3.5  -11.3    1.8
H   -10.4   -2.9   -5.3
H    11.1    1.6   -4.5
H    10.5    3.9   -4.4
H     6.5    6.0    8.2
N    10.7    2.0   -5.3
H     5.9    8.4    6.5
I     7.8   -9.1   -2.2
H    -3.0    8.4    8.3
I    -3.0   11.7    1.1
P     5.9   -6.4   -8.5
H    10.2    1.4    6.5
H    -8.2   -7.2   -5.3
I     3.2   -8.2   -8.4
H    11.7    3.5    0.6
H    -3.2   -9.8    6.5
H     0.8   11.0   -5.3
N     2.1   12.0    0.3
P   -11.7    2.7   -2.1
H    -1.5   -0.9  -12.1
C    10.1   -6.8    1.5
I     1.5  -10.9   -5.3
I   -10.2    5.3    4.3
H   -12.2   -1.0    0.1
I    -2.7    2.8  -11.6
H     7.0  -10.1    1.1
H   -11.7   -2.8    2.4
H    -6.2   -7.6    7.4
I   -12.0    2.6    1.1
P    -2.7   11.8   -2.1
I     7.9    9.1   -2.2
P     5.8    2.6   10.6
C     6.2  -10.7    0.7
H    -8.3   -5.5    7.4
H     5.2   -9.9   -5.3
H     1.3   10.5    6.5
H     6.8    8.3   -6.2
N    10.8   -6.2    0.3
I    -1.2   -9.1   -8.4
H    10.4   -5.1   -4.4
I    -1.0    9.1   -8.4
H     1.0   12.2    2.1
H     2.8    3.7  -11.5
N     1.9   11.1   -5.3
I    12.3    0.9   -2.2
H    -2.9  -11.9    2.4
H    -3.8   -2.7  -11.6
H     2.3   10.7   -6.2
C     6.4    7.9    7.4
C     2.1    3.1  -12.0
I     8.3   -8.5    4.3
H    -7.0    1.9  -10.3
H     9.6    3.6    7.4
H    -2.2    6.4  -10.7
H    -1.7  -10.1    7.4
N   -12.3   -2.2    1.8
I    -7.4    7.1    7.4
N     5.4  -11.3    1.8
C    11.0    3.5   -5.3
I    -5.7    4.4   10.4
N    -2.3   -1.5  -12.4
H   -11.1   -0.8   -6.2
C    -7.2   -7.3    7.4
H     1.4   12.6   -0.3
H     6.7   -9.8   -4.5
P    -3.0   11.6    4.2
H     1.8   -7.2  -10.3
H    -7.7   -7.7    6.5
