         400
 sphere cut out from bulk 
I    -0.8    1.2    0.8
P     1.8   -0.8    0.7
H    -2.0   -1.7   -1.4
H    -1.2    0.1   -2.9
I     1.8   -0.8   -2.5
H    -3.1   -0.3   -1.3
I    -0.2   -3.3    0.7
C    -2.7   -1.1   -1.9
H    -1.9    0.3    2.9
H     1.4    3.2   -1.3
N    -2.0   -0.5   -3.1
I     3.7    1.8    0.8
H    -1.7   -1.2   -3.8
I     1.8   -0.8    3.9
H    -2.7   -2.0    2.8
N    -2.5   -0.1    3.7
H    -1.3   -1.8    3.9
H    -3.5   -1.7   -2.3
H    -2.7    0.1   -3.7
P    -2.7    3.8    0.7
H     1.0    2.8    3.6
C    -2.3   -1.6    3.8
H     2.5    2.7    2.9
C     1.8    4.0   -1.9
H    -3.4    0.2    3.6
H     1.7    2.9   -3.7
H    -2.1    0.3    4.6
H     0.9   -4.4   -2.3
I     4.3   -2.8    0.7
H     3.2    2.9   -2.9
N     2.0    3.1    3.7
I    -2.7    3.8   -2.5
N     2.4    3.5   -3.1
H     0.9    4.7   -2.3
H     2.5   -4.5   -1.4
H     1.8   -4.1    2.8
H     2.5    4.6   -1.4
I    -4.6   -2.8    0.7
I    -5.2    1.8    0.8
C     1.8   -5.1   -1.9
H    -2.9   -2.0    4.6
H     2.4    2.7    4.6
I    -0.2    5.8    0.7
I     0.2    1.9   -5.5
H     1.8    5.0    2.8
P    -2.7   -5.3    0.7
H     5.8   -0.3   -1.3
I    -2.7    3.8    3.9
P     2.0   -0.8   -5.7
H     5.4   -1.7   -2.3
H     1.4   -5.9   -1.3
C     2.1   -4.5    3.8
C     2.1    4.6    3.8
H     2.8    4.2   -3.8
I    -0.8   -2.6   -5.8
H     1.6   -4.1    4.6
I    -2.7   -5.3   -2.5
H     5.5    0.2    3.6
C     6.2   -1.1   -1.9
H     3.2   -4.3    3.9
H     2.8   -4.9   -3.8
N     2.4   -5.6   -3.1
H     1.6    5.0    4.6
H     3.2    4.8    3.9
H    -5.7    2.9   -2.9
I    -4.3    1.1   -5.5
I    -1.0    1.0    6.9
H     6.2   -2.0    2.8
I    -2.7   -5.3    3.9
P    -7.1   -0.8    0.7
P    -2.4    3.8   -5.7
H     6.2    0.1   -3.7
H     6.9   -1.7   -1.4
P     1.8   -0.8    7.0
I     4.6    1.1   -5.5
P     6.3    3.8    0.7
H     1.0   -6.3    3.6
N     2.0   -6.0    3.7
H     1.7   -6.2   -3.7
N     6.5   -0.1    3.7
H     2.5   -6.4    2.9
H    -6.4    2.7    2.9
N     6.9   -0.5   -3.1
I    -7.1   -0.8   -2.5
H     7.0    0.3    2.9
H     3.2   -6.2   -2.9
I     4.3    6.3    0.7
I     3.7   -3.6   -5.8
I     6.3    3.8   -2.5
C     6.6   -1.6    3.8
H     6.0   -2.0    4.6
H    -2.0    7.4   -1.4
I    -4.6    6.3    0.7
H    -6.4   -4.5   -1.4
I    -0.1   -3.5    7.2
I     3.5    2.0    6.9
I    -0.8   -7.9    0.8
N    -6.5    3.5   -3.1
H    -6.4    4.6   -1.4
H    -2.7    7.1    2.8
H    -5.7   -4.3    3.9
P    -2.4   -5.3   -5.7
I    -7.1   -0.8    3.9
H     7.7    0.1   -2.9
I     3.7   -7.3    0.8
P     6.3   -5.3    0.7
H     6.8    0.3    4.6
H     7.2   -1.2   -3.8
I     6.2    3.8    3.9
H     2.4   -6.4    4.6
I     8.1    1.2    0.8
H    -7.5    3.2   -1.3
H    -1.3    7.3    3.9
H    -6.1    4.2   -3.8
H    -6.5    2.7    4.6
P    -2.7    3.8    7.0
H    -5.7    4.8    3.9
N    -6.9    3.1    3.7
C    -7.2    4.0   -1.9
H    -1.8   -1.9   -8.1
H    -3.5    7.4   -2.3
P     1.8    8.3    0.7
H    -2.7    0.4   -8.1
I    -5.2   -3.6   -5.8
H    -7.2    2.9   -3.7
I     6.3   -5.3   -2.5
H     1.8    2.6   -8.1
C    -2.7    8.0   -1.9
C    -2.3    7.5    3.8
H    -6.1   -4.9   -3.8
H    -7.2   -4.1    2.8
I    -0.8    6.5   -5.8
H     7.7   -1.8    3.9
I     3.7    5.5   -5.8
I     4.4   -2.6    7.2
I    -4.5   -2.6    7.2
I     1.8    8.3   -2.5
H    -1.0    0.3   -8.8
H    -1.7    7.9   -3.8
H    -5.7   -6.2   -2.9
P    -6.9   -0.8   -5.7
H    -2.9    7.1    4.6
C    -6.8   -4.5    3.8
C    -7.2   -5.1   -1.9
C    -6.8    4.6    3.8
I    -5.2   -7.3    0.8
I    -5.5    2.0    6.9
I     0.2   -7.2   -5.5
I     2.0   -0.8   -8.8
I    -0.1    5.6    7.2
I     6.2   -5.3    3.9
H    -1.9   -0.4    8.9
H    -7.9    2.8    3.6
H    -7.2    5.0    2.8
N    -6.5   -5.6   -3.1
C    -2.1    0.0   -8.9
P    -2.7   -5.4    7.0
N    -2.2   -1.5   -9.0
I     8.7   -3.3    0.7
I     1.8    8.3    3.9
P     6.5    3.8   -5.7
N    -2.0    8.6   -3.1
H    -8.0   -4.4   -2.3
H     5.4    7.4   -2.3
H    -3.1    8.8   -1.3
H    -1.9   -8.8    2.9
H    -6.4   -6.4    2.9
H     2.6   -4.2   -8.1
H    -1.2   -9.0   -2.9
H    -8.0    4.7   -2.3
I    -5.2    5.5   -5.8
H    -3.0   -1.7    9.0
H    -7.4   -4.1    4.6
H    -7.5   -5.9   -1.3
C     2.4    3.0   -8.9
I    -9.1   -3.3    0.7
H    -1.2    9.2   -2.9
H    -3.2   -1.8   -9.1
I    -9.7    1.2    0.8
H     2.6    4.9   -8.1
H     3.4    2.7   -8.8
H     2.5    3.3    8.9
H     6.2    7.1    2.8
N    -2.3   -1.1    9.5
I    -2.4    3.8   -8.8
N    -6.9   -6.0    3.7
H    -3.1   -9.4   -1.3
H    -7.4    5.0    4.6
H    -1.9    9.4    2.9
N    -2.5    9.0    3.7
P    -7.1   -0.8    7.0
H    -1.5   -1.7    9.8
P     1.8   -9.9    0.7
H    -1.7   -1.9   -9.8
P     6.5   -5.3   -5.7
P     6.2    3.8    7.0
H    -2.7   -9.0   -3.7
H    -2.1   -8.8    4.6
H     1.5   -4.5    9.0
H     1.3   -4.4   -9.1
H    -2.5    0.4   -9.9
H    -7.2   -6.2   -3.7
H     1.5    4.6    9.0
H    -3.4   -8.9    3.6
N    -2.5   -9.2    3.7
H     6.3    0.4   -8.1
P     2.0    8.3   -5.7
H    -6.5   -6.4    4.6
N     2.2    4.4   -9.0
H     6.9    7.4   -1.4
H    -2.7    9.2   -3.7
N    -2.0   -9.6   -3.1
I     8.1   -2.6   -5.8
H     1.3    4.7   -9.1
I    -0.8   10.3    0.8
C     6.2    8.0   -1.9
I     1.6   -0.8   10.2
N     2.2   -4.7   -9.0
I     1.8   -9.9   -2.5
H     6.0    7.1    4.6
H     2.0    2.6   -9.9
I     8.7    5.8    0.7
I    -8.7    1.9   -5.5
I     3.5   -7.1    6.9
H    -3.4    9.3    3.6
H     1.8   -6.5   -8.1
H   -10.2    0.1   -2.9
I     7.9    1.0    6.9
I    -2.4   -5.3   -8.8
N     2.2    4.1    9.5
I     4.4    6.5    7.2
I    -4.5    6.5    7.2
I    -4.3   -8.0   -5.5
C     6.6    7.5    3.8
H     5.8    8.8   -1.3
H    -2.1    9.4    4.6
C    -2.7  -10.2   -1.9
I    -1.0   -8.1    6.9
H    -5.5    2.7   -8.8
H    -7.9   -6.3    3.6
P    10.7   -0.8    0.7
I     1.8   -9.9    3.9
I    -9.1    5.8    0.7
P     6.2   -5.4    7.0
I     4.6   -8.0   -5.5
H     0.7    2.9   10.4
I     9.1    1.9   -5.5
H     5.7   -1.8   -9.1
H    10.3    3.2   -1.3
H     6.0   -1.7    9.0
H     2.5   -5.8    8.9
H     7.1   -1.9   -8.1
H     9.9    2.8    3.6
P    -7.1    8.3    0.7
H    -1.8    7.2   -8.1
N     2.2   -5.0    9.5
H     2.8   -4.3   -9.8
H     9.8   -4.4   -2.3
I    10.7   -0.8   -2.5
H    -2.0  -10.8   -1.4
H   -10.2   -1.8    3.9
P     1.8    8.3    7.0
H    -3.8    0.1   10.4
H     5.5   -8.9    3.6
H    -7.1    2.6   -8.1
H    -6.3   -4.2   -8.1
H   -10.9   -1.7   -1.4
C     2.4   -6.1   -8.9
H     5.8   -9.4   -1.3
H    -1.7  -10.3   -3.8
H     9.8    4.7   -2.3
C    -2.9   -0.5   10.7
H     3.0   -4.4    9.8
I    -6.9   -0.8   -8.8
I    -7.1    8.3   -2.5
H   -10.8    0.3    2.9
I    -2.9    3.8   10.2
H     7.7    7.3    3.9
C     6.8    0.0   -8.9
H     2.8    4.8   -9.8
H     3.0    4.7    9.8
N     6.7   -1.5   -9.0
H   -10.6   -1.2   -3.8
H     7.0   -0.4    8.9
I    -5.5   -7.1    6.9
H    -6.3    4.9   -8.1
H     7.2    7.9   -3.8
H     5.5    9.3    3.6
C     1.5    3.5   10.7
I     8.1   -7.9    0.8
I    10.7   -0.8    3.9
N   -11.0   -0.5   -3.1
H     3.4   -6.4   -8.8
H    -6.4    3.3    8.9
C    -6.5    3.0   -8.9
N     6.9    8.6   -3.1
H    -2.2    0.1   11.3
I     3.7   10.9    0.8
I    -9.7   -2.6   -5.8
H     6.2   -9.0   -3.7
I     6.5    3.8   -8.8
C    -2.3  -10.7    3.8
C    10.7    4.0   -1.9
P     2.0   -9.9   -5.7
H    -3.5  -10.8   -2.3
H     5.1    0.1   10.4
H     7.0   -8.8    2.9
I    -7.1    8.3    3.9
H    10.7    2.9   -3.7
N     6.6   -1.1    9.5
H    -1.3  -10.9    3.9
N     6.5    9.0    3.7
H     6.2    9.2   -3.7
H    -2.7  -11.1    2.8
H    10.7   -4.1    2.8
H     6.5    0.4   -9.9
C   -11.6   -1.1   -1.9
H     7.9    0.3   -8.8
N     6.5   -9.2    3.7
H     2.3    2.9   11.3
I    -2.9   -5.4   10.2
H   -11.0    0.3    4.6
I     8.9   -3.5    7.2
H    -3.3   -1.3   11.4
H    10.3   -5.9   -1.3
I     8.1    6.5   -5.8
N    10.9    3.1    3.7
C   -11.2   -1.6    3.8
N   -11.4   -0.1    3.7
C    10.7   -5.1   -1.9
N    -2.2    7.6   -9.0
I    -9.0   -3.5    7.2
H     2.0   -6.5   -9.9
H    -3.0    7.4    9.0
N    -6.7    4.4   -9.0
H     6.8   -8.8    4.6
H   -12.0   -0.3   -1.3
H     7.0    9.4    2.9
C     6.2  -10.2   -1.9
I     0.1    1.7  -12.0
H    -3.2    7.3   -9.1
N    -6.7   -4.7   -9.0
H    10.7    5.0    2.8
H   -11.6   -2.0    2.8
H    11.4    2.7    2.9
I    -5.2   10.9    0.8
I    -9.9    1.0    6.9
I     6.5   -5.3   -8.8
H     7.7   -9.0   -2.9
H    10.5   -4.1    4.6
H     0.7   -6.3   10.4
H    -2.7   -8.7   -8.1
H    -5.5   -6.4   -8.8
P    -6.9    8.3   -5.7
P   -11.6    3.8    0.7
N     6.9   -9.6   -3.1
H   -11.6    0.1   -3.7
H     1.1    4.3   11.4
P     2.0   -0.8  -12.0
P    -7.1   -9.9    0.7
C     1.5   -5.6   10.7
I    -0.5   -2.7  -11.9
P     1.8   -9.9    7.0
N    11.3    3.5   -3.1
I     2.0    8.3   -8.8
H     5.4  -10.8   -2.3
H    -1.7    7.2   -9.8
I    -1.0   10.1    6.9
H    -5.9   -4.4    9.8
C     6.0   -0.5   10.7
H     7.2   -1.9   -9.8
H    -6.1   -4.3   -9.8
H     9.9   -6.3    3.6
H    11.4   -4.5   -1.4
H    -6.9    2.6   -9.9
P    10.9   -0.8   -5.7
I    -4.3   10.2   -5.5
H     7.7    9.2   -2.9
H    -2.9  -11.1    4.6
I     0.2   11.0   -5.5
N    -6.7    4.1    9.5
H    -6.4   -5.8    8.9
H    -5.9    4.7    9.8
H    -1.5    7.4    9.8
H    11.4    4.6   -1.4
H     1.1   -4.8   11.4
H     2.5   11.8    2.9
I     6.0    3.8   10.2
I   -11.6    3.8   -2.5
H     7.4   -1.7    9.8
I    -7.1   -9.9   -2.5
I    -0.2  -12.4    0.7
H    10.5    5.0    4.6
I     4.6   10.2   -5.5
H    -7.4   -4.5    9.0
H     1.0   11.9    3.6
H     1.4   12.3   -1.3
H    11.3    2.7    4.6
H    -6.1    4.8   -9.8
H     6.8    9.4    4.6
