         400
 sphere cut out from bulk 
P     0.0    0.0    0.0
I    -1.9   -2.6    0.0
I    -2.5    1.9    0.5
I     2.0    2.6   -0.0
I     2.6   -1.9   -0.5
I    -0.5    0.3   -3.2
I     0.4   -0.4    3.2
H     0.3   -2.9    2.9
H    -3.1    0.2   -2.7
H     0.3   -3.9    1.5
H     0.0    3.1    2.8
H    -0.0   -3.2   -2.8
H     3.8    0.6    2.1
H    -3.9   -0.7    2.2
H    -0.1    4.3   -1.7
H     3.5   -1.0    2.9
N     0.5   -3.8    2.6
H     3.0   -0.2   -3.6
H    -0.3    2.9   -3.7
H    -4.5    0.0   -1.7
H     4.5    0.0   -1.7
N    -4.1    0.3   -2.7
H    -0.2   -4.7   -1.7
C     4.2   -0.2    2.7
C     0.2   -4.3   -2.7
H     1.6   -4.0    2.7
C    -0.2    4.1    3.3
H    -4.3    1.3   -2.8
H    -3.5    1.0    3.9
H     0.4    5.1    1.5
C     0.2    4.6   -2.7
H     1.3    4.4   -2.8
C    -4.7   -0.2    2.7
H     1.2   -4.5   -2.8
H    -1.3    4.3    3.1
N    -0.5    3.9   -3.8
N     4.8    0.3   -2.7
C     4.0   -0.4   -3.7
H     5.1   -0.7    2.2
H     4.6    1.3   -2.8
H    -5.1    0.6    2.1
H    -1.5    4.1   -3.7
N     0.6    5.1    2.6
H    -1.3   -4.6    3.1
H     4.3   -1.5   -3.6
N    -4.2    0.3    4.0
H     1.6    4.9    2.7
C    -0.3   -4.9    3.3
H     0.1    4.1    4.3
H    -3.8   -0.5    4.6
H    -4.7   -1.5   -3.6
H     3.9    0.7    4.6
C    -4.9   -0.4   -3.7
N     4.7    0.3    4.0
P    -4.3    4.4    0.0
H    -5.5   -1.0    2.9
P    -4.4   -4.5    0.0
N    -0.5   -5.0   -3.8
H    -1.6   -4.9   -3.7
H     0.0    5.7   -2.8
H    -0.1    4.3   -4.7
P     4.5   -4.5    0.0
P     4.6    4.4    0.0
P    -0.2   -0.3   -6.4
P     0.0   -0.0    6.4
H     5.8    0.2   -2.7
H     4.4   -0.1   -4.7
H    -0.0   -4.9    4.3
I    -4.1    3.9   -3.2
H    -0.0   -5.9    2.8
H    -4.5   -0.1   -4.7
I    -1.8    6.3    0.0
I     4.0   -4.1    3.2
I    -6.3   -1.9   -0.5
H    -0.2   -4.7   -4.7
I     1.9   -6.4   -0.0
I     6.4    1.9    0.5
I     1.6   -2.8   -5.9
H     0.4    6.0    2.9
I    -2.0    2.5    5.9
H     5.4    1.0    3.9
H    -5.0    0.7    4.6
H     5.1   -0.5    4.6
H    -5.9   -0.2   -3.6
I     4.8    3.9   -3.2
I     2.4    1.7   -6.4
I     4.1    4.8    3.2
H    -0.4   -6.0   -3.7
I    -2.6   -1.9    6.4
I     2.6    1.9    6.4
I    -4.9   -4.1    3.2
I    -4.1   -5.0   -3.2
I    -2.8   -2.1   -6.5
I    -7.0    2.6   -0.0
I    -2.6   -7.0    0.5
I    -4.8    4.8    3.2
I     7.1   -2.6    0.0
I     2.7    7.0   -0.5
I    -2.2    2.2   -6.9
I     4.8   -5.0   -3.2
I     1.9   -2.6    7.0
I     1.7    6.1   -5.9
P     4.3    4.2   -6.4
H    -7.4   -4.0    2.7
P    -0.1   -8.9    0.0
P    -8.9    0.0    0.0
P     8.9    0.0    0.0
P     4.4   -4.4    6.4
P     0.1    9.0    0.0
P     4.2   -4.7   -6.4
I     8.4    0.3   -3.2
P    -4.7    4.2   -6.4
P    -4.5    4.5    6.4
I    -2.0   -6.4    5.9
P     4.5    4.5    6.4
P    -4.5   -4.4    6.4
H     3.7    0.5   -8.2
I     6.1   -2.1   -6.5
I    -8.6   -0.4    3.2
H     3.5    7.9    2.9
I     0.4    8.6    3.2
H    -4.0   -0.7   -8.2
I     6.3   -1.9    6.4
H    -7.3    4.9    2.7
H    -4.4   -7.6   -2.8
H    -4.3    0.1    8.1
I    -6.4    1.9    6.4
H    -7.6    4.4   -2.8
I    -0.6   -8.6   -3.2
H     7.4    4.1   -3.7
P    -4.7   -4.7   -6.4
H     0.0   -4.4    8.1
H     4.6   -7.6   -2.8
H     0.1    4.5    8.1
H     4.3    7.4   -3.6
H     7.7    4.3    3.1
H    -7.7   -4.5   -2.8
H    -0.1    3.8   -8.5
H    -3.8    8.3    2.2
I    -6.6    1.7   -6.4
H     4.6    0.1    8.1
H     3.7   -8.4    2.1
I    -6.3    7.0   -0.5
H     7.6   -4.6    3.1
H    -4.6    7.4   -3.6
I     6.9    2.5    5.9
I     6.3   -7.0    0.5
I    -7.0   -6.4   -0.0
H    -8.6   -2.9    2.9
H    -3.5   -7.9    3.9
I     7.1    6.3    0.0
H    -8.6   -3.9    1.5
H     7.3   -4.9   -3.7
N    -8.4   -3.8    2.6
H     4.9   -0.7   -8.2
I     0.2   -0.6   -9.6
I     1.9    6.4    7.0
H    -0.1    3.1    9.1
I    -0.3    0.6    9.6
H    -3.7    0.8   -8.9
H    -3.2   -8.8   -2.7
H     3.2    0.0    9.2
H    -5.2    0.5   -8.2
I    -2.7    6.8   -6.5
I    -7.3   -2.8   -5.9
I    -0.5    9.2   -3.2
H     8.6    2.9   -3.7
H    -8.9    3.1    2.8
I     2.5   -7.0    6.4
I    -2.5    7.0    6.4
I     9.3   -0.4    3.2
I     0.3   -9.3    3.2
N    -4.4    0.0   -8.8
I    -2.3   -6.7   -6.9
H     8.9   -3.2   -2.8
I     6.7    2.2   -6.9
H     9.0    3.1    2.8
H     3.0    8.7   -3.6
N     4.5    0.0   -8.8
H    -8.9   -3.2   -2.8
H     8.8    4.3   -1.7
H    -0.2   -5.1   -8.5
N    -4.2   -8.6   -2.7
H     5.1    8.3    2.2
N    -0.3    4.2    9.1
I     2.3   -7.3   -6.4
I    -9.4    0.3   -3.2
H    -3.0    9.1   -2.7
H    -5.4    7.9    2.9
H     8.7   -4.7   -1.7
C     4.3   -0.2    9.1
N     8.4    3.9   -3.8
H    -8.5    5.1    1.5
C     4.3    8.7    2.7
N    -8.3    5.1    2.6
H    -5.2   -8.4    2.1
H     4.4   -8.9   -1.7
C    -8.7   -4.3   -2.7
H    -4.4    8.9   -1.7
H     9.2   -3.9    1.5
H     9.3   -2.9    2.9
C     4.1    8.5   -3.7
H    -9.0    4.3   -1.7
H    -4.5   -8.9   -1.7
C     8.7    4.1    3.3
H    -1.3    4.3    9.1
H     4.5    8.9   -1.7
N     4.7   -8.6   -2.7
H     3.9   -8.2    4.6
C    -8.7    4.6   -2.7
C    -4.6    8.7    2.7
C    -4.7   -0.2    9.1
N    -0.3   -4.8    9.1
I    -7.1   -2.6    7.0
H     2.9   -9.2   -3.6
H    -1.4   -4.6    9.1
C    -0.4    3.8   -9.6
H    -3.7    8.5    4.6
H     5.4   -7.9    3.9
H    -4.5   -1.3    9.2
H     4.5   -1.3    9.2
H    -9.2    2.9   -3.7
H    -0.2    2.8  -10.0
H     5.2    0.8   -8.9
H    -9.1   -4.7   -1.7
H     0.1   -3.1   -9.9
C     9.1   -4.3   -2.7
C     4.1   -9.2    2.7
C    -4.8    8.5   -3.7
N    -4.1    9.2   -2.7
N    -4.3   -8.7    4.0
C     8.7   -4.9    3.3
N     8.4   -5.0   -3.8
H     3.9    9.5    2.1
H     0.2   -3.0   10.1
H    -2.9    0.4   10.1
C    -9.1    4.1    3.3
H     3.3   -1.3   -9.9
N     9.5   -3.8    2.6
C     9.2    4.6   -2.7
N     4.6   -8.7    4.0
H    -1.5    4.0   -9.7
H    -3.9   -9.6    2.2
H    -8.8    4.1    4.3
H    -5.0   -8.2    4.6
C    -4.8   -9.2    2.7
H     9.3    5.1    1.5
P    -0.1    8.7   -6.4
H     9.0    4.1    4.3
N     4.9    9.2   -2.7
H    -0.2   -5.8    9.1
P     8.7   -0.3   -6.4
H    -8.5    6.0    2.9
H     5.7   -8.8   -2.7
H     8.8    4.3   -4.7
C     4.0   -9.4   -3.7
H    -5.7    0.0    9.2
N    -9.4    3.9   -3.8
C    -0.5   -5.1   -9.6
N    -4.1    9.2    4.0
C     4.0   -0.5  -10.1
C    -9.2   -4.9    3.3
H    -8.9    5.7   -2.8
N    -3.9    0.6   10.2
H     3.4   -9.9    2.9
C     0.4   -4.1   10.2
H    -4.4    8.8   -4.7
H     8.7   -4.7   -4.7
H     5.2    8.5    4.6
H     4.5    8.8   -4.7
H    -4.1    1.6   10.1
H    -1.5   -4.9   -9.7
P    -8.9   -0.0    6.4
H     9.0    5.7   -2.8
P     0.1    8.9    6.4
H    -5.1    9.5    2.1
P     8.9   -0.0    6.4
H     8.9   -5.9    2.8
H     1.5   -4.3   10.1
P    -0.1   -9.0    6.4
H     8.9   -4.9    4.3
H    -8.9   -4.9    4.3
H    -9.0    4.3   -4.7
H     5.0   -9.6    2.2
H    -8.9   -5.9    2.8
N     0.3   -4.1  -10.3
H     4.3   -9.0   -4.7
I   -10.8   -2.6    0.0
H    -5.9    8.7   -3.6
H     8.5   -6.0   -3.7
N     9.5    5.1    2.6
H     1.4   -4.3  -10.1
I    -7.2    6.1   -5.9
I    -2.4   10.8    0.5
I     2.5  -10.8   -0.5
N     4.8    9.2    4.0
P    -9.1   -0.3   -6.4
I     6.9   -6.4    5.9
H    -3.8   -9.4    4.6
I    10.9    2.6   -0.0
H     5.9    9.1   -2.7
H    -4.6   -9.0   -4.7
I    -3.9    4.2    9.6
H     1.5    4.7   10.1
H    -3.4    9.9    3.9
P    -0.3   -9.2   -6.4
I     6.2    6.8   -6.5
C    -4.9   -9.4   -3.7
I     3.8   -4.4   -9.6
C    -4.9   -0.5  -10.1
H     1.4    4.7  -10.1
H    -9.1   -4.7   -4.7
H     3.6    0.3  -10.7
H     4.8    1.6   10.1
C     0.5    4.9   10.2
N     5.0    0.6   10.2
I     3.9    4.6   -9.6
N    -9.5   -5.0   -3.8
N     0.4    4.8  -10.3
H     4.0    9.6    4.6
I    -3.9   -4.8    9.6
H    -4.1   -0.9  -10.7
H    -4.2   10.3   -2.8
I     6.4    7.0    6.4
H    10.2   -4.5   -2.8
I    -6.4   -7.0    6.4
H   -10.2    4.3    3.1
H     0.2    5.8   -9.9
H    -5.7   -1.3   -9.9
H    10.2    4.4   -2.8
H     9.3    6.0    2.9
H    10.5   -4.0    2.7
H    -6.0   -9.2   -3.6
I   -11.4    1.9    0.5
H     5.1   -9.4    4.6
H     4.7   10.3   -2.8
I     5.1    4.2    9.6
H   -10.2   -4.6    3.1
I     2.0   11.5   -0.0
I    11.5   -1.9   -0.5
I    -1.9  -11.5    0.0
H     0.3    5.9   10.1
I     6.7   -6.7   -6.9
H    -9.3   -6.0   -3.7
H    -0.2   -6.1  -10.0
I    -5.1   -4.4   -9.6
I    -7.0    6.4    7.0
H     6.0    0.4   10.1
H    -5.5   -9.9    2.9
H    -4.9    9.6    4.6
H     4.9   -0.9  -10.7
I    -6.6   -7.3   -6.4
I    -5.0    4.6   -9.6
H   -10.4    4.1   -3.7
H     4.2  -10.4   -3.6
I     5.0   -4.8    9.6
H    -4.2    0.3   11.1
H    10.5    4.9    2.7
H    -5.3    0.3  -10.7
H     0.0   -4.4   11.1
H     0.1    4.5   11.1
H     0.1   -4.1  -11.3
H     5.5    9.9    3.9
H    -4.7  -10.4   -3.6
H     4.7    0.3   11.1
H   -10.5   -4.9   -3.7
H     0.3  -11.8    2.9
H    -3.9    8.2   -8.2
H     0.2    4.8  -11.3
H   -12.0    0.2   -2.7
H     0.1   12.0    2.8
H     3.7   -8.5   -8.2
H    -0.2   11.8   -3.7
I    10.6   -2.8   -5.9
I     8.3   -8.6   -3.2
H    11.9   -0.2   -3.6
I   -10.7    6.3    0.0
H    -0.1  -12.2   -2.8
I    -8.5    8.6    3.2
I    10.8   -6.4   -0.0
P     8.9   -8.9    0.0
I    -6.4  -10.8   -0.5
P    -8.8    9.0    0.0
I     2.4   10.6   -6.4
P    -9.0   -8.9    0.0
I     6.5   10.8    0.5
H     7.6    4.3    9.1
I   -10.9    2.5    5.9
H     5.0    8.2   -8.2
H    -3.8   -8.2   -8.9
I    -2.7    1.7  -12.3
I     0.2    8.3   -9.6
H     7.6   -4.6    9.1
P     9.0    9.0    0.0
H    -4.4   -8.8    8.1
H    12.4   -1.0    2.9
I    -0.4   -8.4    9.6
I     2.8   -1.6   12.4
H    -4.4    7.7    9.2
H     4.5   -8.8    8.1
