         400
 sphere cut out from bulk 
P    -0.2   -1.3    0.0
I    -2.0    1.4   -0.6
I     2.5    0.7    0.1
H    -0.2    1.9    2.6
H    -0.3    2.1   -2.4
I    -0.5   -0.7    3.1
I     0.3   -1.5   -3.1
H     0.1    3.4    1.8
N    -0.3    2.9    2.7
H     3.6   -0.7   -1.8
N     0.1    2.6   -3.2
I    -2.9   -3.1   -0.1
H    -1.3    3.0    2.6
I     1.6   -3.9    0.5
H     1.2    2.6   -3.2
H     3.4   -0.5    2.7
H     3.0   -1.8   -2.8
H    -3.7   -0.1    2.6
H    -0.3    2.1   -4.1
H    -3.3   -0.4   -3.2
N     3.9   -1.4   -2.5
H     0.0    4.5   -2.3
H    -0.1   -4.6   -2.3
C    -0.4    4.0   -3.2
C     0.2    3.4    3.9
H    -4.4   -2.1   -1.9
H     4.4   -2.1   -1.9
H    -4.0   -2.4    2.4
H     1.3    3.3    4.0
H    -1.5    4.0   -3.2
P     4.3    3.3   -0.0
C     4.3   -0.6    3.2
I     1.7    5.2    0.5
H    -3.3   -2.1    3.9
C    -4.5   -0.6    3.2
H    -5.2   -0.7   -1.8
H    -0.3    2.9    4.8
C    -4.2   -0.9   -3.6
P    -4.6    3.3   -0.0
N    -4.1   -2.0    3.3
H     4.0   -0.1   -4.1
N    -5.0   -1.4   -2.5
H     5.1   -0.1    2.6
I    -3.9    3.2    3.1
H     4.8   -2.4    2.4
C     4.6   -0.9   -3.6
H     0.0    4.5    4.0
H     4.3   -0.1    4.2
C    -0.5   -5.1   -3.2
H     0.1   -5.7    1.8
I     3.7    3.6   -3.2
H    -0.1   -4.6    4.0
H     4.0   -2.5    3.9
N     4.7   -2.0    3.3
H    -4.0   -1.7   -4.3
H     0.0    4.5   -4.1
H    -5.5   -0.5    2.7
H    -0.1   -4.6   -4.1
H    -4.5   -0.1    4.2
H    -1.5   -5.1   -3.2
I    -2.1    1.3   -5.8
H    -4.9   -0.1   -4.1
P     0.1   -1.1    6.3
I    -6.4    0.7    0.1
H     5.5   -0.4   -3.2
P    -0.1   -1.2   -6.4
I    -2.8    6.0   -0.1
H     4.8   -1.7   -4.3
I     5.0    3.2    3.1
H    -4.9   -2.5    3.9
I     6.0   -3.1   -0.1
I     2.4    1.2    6.2
H    -5.9   -1.8   -2.8
H    -1.4   -6.1    2.6
N    -0.4   -6.2    2.7
C     0.1   -5.7    3.9
I     2.2    1.0   -6.5
I    -5.1    3.6   -3.2
I     2.3   -3.3    5.7
I     6.9    1.4   -0.6
H     5.6   -2.1    3.9
P     4.2   -5.8   -0.0
H     1.2   -5.8    4.0
N     0.0   -6.5   -3.2
I    -1.9    1.4    6.9
I     3.7   -5.5   -3.2
H     1.1   -6.5   -3.2
H    -0.3   -7.0   -2.4
P    -4.7   -5.8   -0.0
I    -2.4   -3.4   -6.3
I    -2.2   -3.2    6.4
H    -0.2   -7.2    2.6
I    -3.9   -5.9    3.1
H    -0.4   -6.2    4.8
P    -0.1    7.8    0.0
I    -2.1   -7.7   -0.6
I     2.1   -3.4   -6.9
H    -0.4   -7.0   -4.1
H    -3.9    6.7    2.4
I    -5.2   -5.5   -3.2
I     0.4    7.6   -3.1
I     4.9   -5.9    3.1
I    -7.3   -3.9    0.5
H     3.1    7.3   -2.8
P     4.4    3.4   -6.3
H    -0.5    2.8   -7.9
P    -4.5    3.4   -6.3
P    -4.3    3.5    6.4
H    -4.3    7.0   -1.9
I     2.4    5.8    5.7
H     7.5    3.0    2.6
H     4.5    7.0   -1.9
I     6.1    6.0   -0.1
P     4.6    3.5    6.4
H    -3.2    7.0    3.9
H     4.9    6.7    2.4
H     4.1    6.6    3.9
H    -7.7    2.6   -3.2
I     2.4   -8.4    0.1
P     8.7   -1.3    0.0
I    -2.3    5.7   -6.3
N    -4.1    7.1    3.3
I    -7.2    5.2    0.5
H    -0.1    2.3    8.6
I    -2.1    5.9    6.4
I     8.3   -0.7    3.1
I     6.7    1.3   -5.8
I    -0.4    8.4    3.1
N     3.9    7.7   -2.5
I    -6.4    1.2    6.2
H     7.4    4.0   -3.2
H    -4.8    6.6    3.9
P    -9.0   -1.3    0.0
H    -7.5    3.3    4.0
H     8.6    2.1   -2.4
I    -8.5   -1.5   -3.1
N     4.8    7.1    3.3
I     2.2    5.7   -6.9
H     8.7    1.9    2.6
I    -6.5   -3.3    5.7
I    -6.6    1.0   -6.5
H     1.1    3.1   -8.7
H    -3.8   -1.6    8.3
C     0.0    3.3   -8.7
H     4.1   -0.3   -8.4
H     3.7    8.4   -1.8
N     8.5    2.9    2.7
H    -3.9    7.4   -4.3
N    -4.9    7.7   -2.5
H     7.3   -5.1   -3.2
H     4.2    0.0    8.5
H    -8.7    3.4    1.8
P     4.3   -5.7   -6.3
P    -4.4   -5.6    6.4
H    -9.0    1.9    2.6
I    -0.7   -0.8   -9.5
P     4.5   -5.6    6.4
I     6.5   -3.4   -6.3
H     0.1   -4.4    8.5
I     0.5   -1.4    9.5
P    -4.6   -5.7   -6.3
H    -9.1    2.1   -2.4
H    -4.7   -0.3   -8.4
H     3.4    8.6    2.7
N    -8.7    2.6   -3.2
H    -5.8    7.3   -2.8
H    -3.4   -2.2   -8.8
H     0.2    4.7    8.5
H     8.6    2.1   -4.1
H    -0.2    4.4   -8.7
H    -4.7    0.0    8.5
H     9.0    3.4    1.8
I     6.7   -3.2    6.4
H     5.7    7.0    3.9
N     0.3    2.8    9.4
I     9.2   -1.5   -3.1
H    -3.2    8.7   -3.2
H     5.0   -1.6    8.3
I     6.9    1.4    6.9
N     9.0    2.6   -3.2
H     1.3    2.7    9.4
I    -9.3   -0.7    3.1
H    -0.3   -4.7   -8.7
H     4.9    7.4   -4.3
H     3.8   -2.6   -8.8
H    -3.1   -0.3    9.4
C    -4.1    8.2   -3.6
C    -4.0   -0.7    9.0
C     8.5    4.0   -3.2
H     7.4   -6.1    2.6
N    -9.2    2.9    2.7
I    -2.2   -7.8   -5.8
H    -5.1    8.4   -1.8
C    -8.6    3.4    3.9
H    -3.7    9.1    2.6
I     2.5    9.8    0.1
H    -0.5   -6.3   -7.9
C     4.4    8.6    3.2
C    -4.4    8.6    3.2
C     4.7    8.2   -3.6
P     0.0    7.9   -6.4
H     8.8   -4.6   -2.3
H    -8.8    4.5   -2.3
H    -0.3    1.7  -10.0
H    -9.1    2.1   -4.1
P     0.2    8.0    6.3
H     8.9    4.5   -2.3
H     8.6    2.9    4.8
I    -6.7   -3.4   -6.9
C     4.8   -0.7    9.0
I     6.8   -7.7   -0.6
H    -3.8   -9.2    2.6
H    -8.9   -4.6   -2.3
C    -0.2    4.2    9.4
C     8.4   -5.1   -3.2
I    -0.6   -9.8    3.1
C     4.2   -0.7   -9.4
I     2.3   -7.9    6.2
P    -0.3  -10.4    0.0
H    -1.3    4.2    9.4
N    -0.5    2.8  -10.0
I    -6.5    5.8    5.7
H    -7.6   -5.8    4.0
H     3.2   -0.6   -9.9
C     9.1    3.4    3.9
C    -0.1   -5.8   -8.7
H    -5.1   -2.6   -8.8
N    -4.3   -2.1   -9.3
H     3.3   -9.6    2.7
H    -0.1    2.3   10.3
I    -2.0   -7.7    6.9
H     3.2   -1.7    9.9
H    -5.4    8.6    2.7
H     3.5   -9.8   -1.8
H     5.4   -2.2   -8.8
C    -4.7   -0.7   -9.4
I     2.1   -8.1   -6.5
N     4.5   -2.1   -9.3
H    -1.5    2.9  -10.0
C    -9.2    4.0   -3.2
H     1.0   -6.0   -8.7
H    -3.4   -9.5   -3.2
I    -6.5   -8.4    0.1
C    -0.3   -4.9    9.4
H    -7.8   -6.5   -3.2
H     8.8   -4.6    4.0
H    -8.8   -5.7    1.8
H    -8.8    4.5    4.0
H    -9.1    2.9    4.8
H     4.1    9.0   -4.1
H     8.9    4.5    4.0
H     8.8   -4.6   -4.1
I    -1.9   10.5   -0.6
I     6.6    5.7   -6.3
H    -1.4   -4.9    9.4
H     8.9   -5.7    1.8
H     5.2    9.1    2.6
H    -8.8    4.5   -4.1
H     8.8    4.5   -4.1
H     5.0   -9.2    2.6
H    -3.9   -0.2  -10.0
H    -8.9   -4.6    4.0
P    -8.7   -1.1    6.3
I    -4.0    3.1   -9.5
N     8.5   -6.2    2.7
H     3.9   -9.2   -4.1
H    10.0    2.6   -3.2
H    -8.9   -4.6   -4.1
H     4.4    9.0    4.2
H     5.6    8.7   -3.2
H    -4.5    9.0    4.2
P     8.8   -1.2   -6.4
I   -10.8    1.4   -0.6
I     3.9    3.7    9.5
H   -10.2    3.0    2.6
H    -0.2   -6.8    8.6
H    -4.8    9.0   -4.1
I     6.7    5.9    6.4
H     4.2   -9.2    4.2
P    -8.9   -1.2   -6.4
H     5.7   -0.3    9.4
P     9.0   -1.1    6.3
C     4.3   -9.7    3.2
N     4.0   -1.3   10.2
I     0.3  -10.6   -3.1
C    -9.3   -5.1   -3.2
C    -8.7   -5.7    3.9
I     4.8    3.1   -9.5
I    -6.6    5.7   -6.9
I    10.4   -3.9    0.5
H    -4.6   -9.2    4.2
C    -4.6   -9.7    3.2
H     4.9   -0.2  -10.0
H    -4.9   -9.2   -4.1
H     0.1   -4.5   10.3
H     8.5   -7.0   -2.4
H    -5.3   -9.8   -1.8
H    -0.1   11.0    2.6
H    -0.0    3.2  -10.8
I    -4.9    3.7    9.5
C     9.0   -5.7    3.9
H     0.2    4.7   10.3
I    11.3    0.7    0.1
N    -4.8   -1.3   10.2
N     0.2   -6.3    9.4
H    -4.2   -2.6  -10.2
H    10.1    3.3    4.0
N    -8.8   -6.5   -3.2
H    -5.6   -9.6    2.7
H     1.3   -6.4    9.4
H     5.5   -9.5   -3.2
N     3.8  -10.5   -2.5
H    -5.7   -0.6   -9.9
N    -9.2   -6.2    2.7
C    -4.3  -10.0   -3.6
N     8.9   -6.5   -3.2
H    -0.2   11.2   -2.4
H     8.5   -6.2    4.8
H   -10.3    4.0   -3.2
H     4.6   -2.6  -10.2
C     4.5  -10.0   -3.6
H     3.8   -0.5   10.9
H    -5.7   -1.7    9.9
H     8.6   -7.2    2.6
H     3.9    6.5   -8.8
I     3.8   -5.4    9.5
I    -6.3    9.8    0.1
H     2.9  -10.9   -2.8
H    -3.4    6.9   -8.8
H    -4.2   -2.0   10.7
I    10.5    5.2    0.5
H     8.5   -7.0   -4.1
P     8.8    7.8    0.0
H    -9.2   -7.0   -2.4
I    -8.4    7.6   -3.1
I     6.7   -7.8   -5.8
H     4.6   -2.0   10.7
N    -0.6   -6.3  -10.0
H     8.4    2.8   -7.9
H    -3.7    7.6    8.3
P    -8.9    7.8    0.0
H    -9.1   -7.2    2.6
H    -1.6   -6.2  -10.0
N    -5.1  -10.5   -2.5
P     0.1  -10.2    6.3
H    -0.2   11.2   -4.1
H    -5.0    6.5   -8.8
I    -6.5   -7.9    6.2
I    -4.1   -6.0   -9.5
H    -5.0   -0.5   10.9
H   -10.4   -5.1   -3.2
I    -5.0   -5.4    9.5
I    -2.0   10.4   -5.8
H    -7.7    3.1   -8.7
H    -9.2   -6.2    4.8
I   -11.7   -3.1   -0.1
P    -0.1  -10.3   -6.4
H     4.3  -11.2   -1.9
N     0.2   11.7   -3.2
H   -10.3   -6.1    2.6
H     1.2   11.7   -3.2
I     4.7   -6.0   -9.5
H    -4.5  -11.2   -1.9
H    -9.2   -7.0   -4.1
I     2.3   10.1   -6.5
I     2.5   10.3    6.2
H    11.8   -1.8   -2.8
I     0.6    7.7    9.5
H    10.1   -5.8    4.0
H     9.9   -6.5   -3.2
N    -0.2   12.0    2.7
H    -0.1   -5.9  -10.8
I     8.4    8.4    3.1
H    -3.3  -11.2    3.9
I    -1.8    1.6   12.1
H    -4.1  -10.8   -4.3
I    -6.7   -8.1   -6.5
H    -0.2   -6.8   10.3
H    -7.5    2.7    9.4
N    -4.2  -11.1    3.3
H     5.1    7.6    8.3
N    -4.2    7.0   -9.3
I     6.8   -7.7    6.9
I     9.3    7.6   -3.1
I   -10.9    1.3   -5.8
H     5.5    6.9   -8.8
H    -0.4   -7.4  -10.0
H     8.8    2.3    8.6
N     4.6  -11.1    3.3
H    -1.3   12.1    2.6
H    -4.1  -11.5    2.4
N     4.6    7.0   -9.3
H    -9.3    2.8   -7.9
H    12.2   -0.5    2.7
I    -2.9  -12.2   -0.1
H     4.8  -10.8   -4.3
I     8.2   -0.8   -9.5
H   -12.2   -0.4   -3.2
H    -8.9    2.3    8.6
H    12.5   -0.7   -1.8
