         400
 sphere cut out from bulk 
I     1.3   -1.4    0.2
P     0.5    0.9   -2.0
I    -1.8    1.5    0.4
P     0.6    0.9    2.3
I     2.2    2.8    0.2
H     1.0   -3.3   -1.3
H    -3.0   -2.4    0.4
H    -3.7   -0.7    0.4
I    -1.6   -1.0   -3.4
H    -2.9   -1.5    2.7
C    -3.8   -1.8    0.8
H    -3.2    2.8   -1.2
I    -1.0   -1.0    4.3
H     1.2   -3.5    2.7
N     1.1   -4.2   -1.9
N    -3.8   -1.8    2.3
H     4.2   -2.2    0.4
I     2.9    0.1   -3.9
H     0.1   -3.4   -3.6
I    -0.2    3.5   -3.6
H    -0.9   -4.4   -2.4
H    -0.4   -4.3    2.8
I     3.1    0.3    4.1
H     2.1   -4.1   -2.4
C     0.1   -4.3   -3.0
H    -4.8   -2.2    0.4
H     5.2   -0.7    0.4
H     1.2   -5.0   -1.3
H     4.4   -1.2    2.7
H     1.1    5.2    0.0
C     0.6   -4.4    3.1
H    -4.5   -1.2    2.7
H     4.1    3.3   -1.2
I    -0.1    3.2    4.4
H    -3.5    2.3    3.5
N    -3.9    3.5   -1.6
C     5.2   -1.8    0.8
H    -4.0   -2.7    2.7
I    -2.3   -5.2    0.3
H     0.1    5.3    2.3
H    -4.2    2.3   -3.4
H    -3.7    4.4   -1.3
N     5.2   -1.8    2.3
H    -4.8    3.3   -1.2
H    -3.3    4.0    3.0
H    -3.1    3.7   -3.5
H     1.0   -5.3    2.7
H     0.2   -3.5    5.0
C    -4.0    3.4   -3.1
N     0.7    6.1    0.4
H    -0.3    6.2    0.1
C    -3.9    3.3    3.6
H     5.0   -2.7    2.7
H     4.1    3.4    3.4
H     0.2   -5.2   -3.5
H     4.8    2.3   -3.4
N     5.1    3.5   -1.6
H     1.2    0.4   -6.2
N     0.7   -4.4    4.6
C     0.7    6.1    1.9
H     6.0   -2.4    0.4
H     5.8    2.8   -1.2
H     1.7    6.0    2.2
H    -0.4    1.0   -6.6
H     4.2    4.0   -3.5
C     5.0    3.4   -3.1
P     0.8    0.9    6.7
H     6.1   -1.5    2.7
H     1.7   -4.4    4.9
P    -3.9   -1.8   -5.3
H     5.5    2.3    3.5
H    -4.9    3.4    3.4
H    -2.7    3.7    5.3
N     0.6    1.0   -6.9
H     1.2    6.9    0.0
I    -3.0    6.4    0.3
H     5.3    4.4   -1.3
I     4.2   -4.4   -3.5
C     5.1    3.3    3.6
H     1.0    2.0   -6.7
I     2.7   -6.6    0.3
H    -4.8    4.0   -3.5
H     0.2   -5.2    5.0
I    -5.9    0.3    4.1
I    -6.1    0.1   -3.9
N    -3.7    3.7    5.0
I     7.1    1.5    0.4
H    -2.7   -1.7    6.6
I    -4.7   -4.4   -3.5
I    -6.8    2.8    0.2
H     0.3    7.1    2.3
P     5.1   -1.8   -5.3
H     5.7    4.0    3.0
I     4.3   -4.6    4.2
H    -4.2    3.1    5.7
I    -7.7   -1.4    0.2
I    -4.7   -4.6    4.2
H     5.9    3.7   -3.5
I    -3.0    0.8   -7.2
H    -4.2   -0.7    6.6
H     4.8    3.1    5.7
H    -4.0    4.7    5.2
C    -3.7   -1.6    7.0
P     0.6    6.1   -5.3
N     5.3    3.7    5.0
H     4.8   -0.7    6.6
I     7.4   -1.0   -3.4
I    -1.9   -3.8   -7.0
H    -4.2   -2.5    6.6
I     3.2    6.8   -3.5
P    -3.9   -7.0   -2.0
P    -3.8   -7.1    2.3
C     0.8    0.6   -8.3
I     2.8   -2.5   -7.5
I     1.6   -1.8    8.0
H    -6.9   -4.1   -2.4
H     0.3   -0.4   -8.4
I     6.7   -5.2    0.3
H     0.5    5.0    6.9
H     4.8   -2.5    6.6
H     5.0    4.7    5.2
I    -1.8    1.6    8.3
I    -1.4   -7.7   -3.7
I     2.5    4.1   -7.2
I    -1.4   -7.4    4.3
P    -8.4    0.9    2.3
H    -8.0   -3.3   -1.3
H     1.8    0.6   -8.6
I     6.0    6.4    0.3
P    -8.5    0.9   -2.0
I     3.0    2.9    7.8
H     1.1   -8.8    0.0
P     5.1   -7.0   -2.0
C     5.3   -1.6    7.0
I     3.7    6.9    4.4
I    -1.3    8.0   -3.7
H     0.3   -8.7    2.3
H    -7.8   -3.5    2.7
H     6.3    3.7    5.3
H     0.2    1.4   -8.9
P     5.1   -7.1    2.3
N    -7.9   -4.2   -1.9
I     8.0   -1.0    4.3
I    -6.3   -6.6    0.3
H     2.0    6.0    6.8
C     1.0    6.0    7.0
H     0.4    6.7    6.4
H     6.3   -1.7    6.6
I    -1.9    5.5   -7.3
N    -3.7   -1.6    8.5
H    -7.8   -5.0   -1.3
I     6.0    0.8   -7.2
H    -3.2   -0.8    8.8
H    -7.9    5.2    0.0
H     8.1   -4.4   -2.4
I     2.7    9.1    0.3
I    -1.3    8.4    4.3
I    -1.8   -4.8    8.0
I    -5.8    6.8   -3.5
H    -0.4   -9.5    0.1
H    -3.4   -6.2   -6.5
H    -7.2    6.0    2.2
N     0.6   -9.6    0.4
H    -3.2   -2.5    8.8
I    -5.3    6.9    4.4
P     9.5    0.9   -2.0
P    -3.8    8.7    2.3
P    -3.8    8.7   -2.0
P     0.6   -4.5   -8.6
C     0.6   -9.6    1.9
I    -3.0   -9.4    0.3
H    -7.3   -4.4    4.9
P     9.6    0.9    2.3
H    -7.9   -5.3    2.7
C    -8.4   -4.4    3.1
H     4.3   -1.7    8.8
H     8.5   -4.3    2.8
H    -7.8    0.4   -6.2
P    -3.8    3.5   -8.6
I    -6.2   -2.5   -7.5
H    -4.7   -1.7    8.8
I     3.1   -9.0   -3.5
N     5.3   -1.6    8.5
I     8.8    3.5   -3.6
H     1.7   -9.8    2.2
H    -8.9   -3.4   -3.6
I    -6.0    2.9    7.8
I     1.4   -7.1   -7.3
P    -3.7   -6.9    6.7
P     5.2    8.7   -2.0
N    -8.3    6.1    0.4
H     9.1   -3.4   -3.6
C    -8.9   -4.3   -3.0
P     5.2    8.7    2.3
I     8.9    3.2    4.4
I    10.3   -1.4    0.2
H    -7.8    6.9    0.0
H     4.1   -7.0   -6.5
C     9.0   -4.3   -3.0
I    -9.2    3.5   -3.6
N    -8.3   -4.4    4.6
C    -8.3    6.1    1.9
I    -6.5    4.1   -7.2
N    -3.9   -7.0   -6.8
I     3.6   -8.9    4.4
H     1.0  -10.5    0.0
I    -2.8    6.2    8.1
H     5.6   -6.2   -6.5
H    -2.9   -1.7  -10.0
P    -8.2    0.9    6.7
H     5.8   -0.8    8.8
I     2.6   -6.3    8.1
I    -9.1    3.2    4.4
H    -8.9    5.3    2.3
H    -8.0    2.0   -6.7
N     0.8    6.4    8.4
H    10.0   -3.3   -1.3
P     5.1    3.5   -8.6
H     8.6    6.2    0.1
H    -8.7   -3.5    5.0
I     7.0   -3.8   -7.0
H    -0.0  -10.4    2.3
H    -4.8   -7.0   -6.5
H    -9.4   -4.3    2.8
H    -3.3    7.9   -6.5
H    -3.4   -7.8   -6.5
H     9.1    5.3    2.3
I    -2.2   10.5    0.3
H    -8.7   -5.2   -3.5
H    -0.2    6.4    8.7
H     1.3    5.7    9.1
H    -4.4   -2.2   -9.6
H     5.8   -2.5    8.8
H     1.1   10.4    2.7
H     1.2   10.7   -1.3
N    -8.4    1.0   -6.9
P     0.7   -4.3   10.0
I    -9.9   -1.0    4.3
H     4.6   -2.2   -9.6
H     8.6    1.0   -6.6
I   -10.8    1.5    0.4
P     5.3   -6.9    6.7
C     9.6   -4.4    3.1
H    -4.2   -0.7  -10.1
P     0.6   -9.6   -5.3
I    -7.3   -1.8    8.0
H     0.4   -9.0    6.4
N     5.1   -7.0   -6.8
I    -6.3    9.1    0.3
H     9.2   -3.5    5.0
H    10.1   -3.5    2.7
H     0.3   10.5   -3.5
I     5.9   -9.4    0.3
I     7.2    1.6    8.3
H    -9.9   -4.4   -2.4
N    -3.9   -1.6  -10.3
N    10.1   -4.2   -1.9
I   -10.5   -1.0   -3.4
I    -0.3   -2.2  -10.9
H    -7.1    0.6   -8.6
H     9.2   -5.2   -3.5
H    -9.3    6.2    0.1
H     4.8   -0.7  -10.1
I    -5.4   -8.9    4.4
P    -3.7    3.6   10.0
I    -5.8   -9.0   -3.5
H    10.0    5.2    0.0
H     1.2    7.3    8.6
I     1.5    8.6   -7.3
H    -8.8   -5.2    5.0
H    10.1   -5.0   -1.3
H    -7.0    6.0    6.8
H    -8.7    7.1    2.3
I     7.6   -7.4    4.3
N     9.6    6.1    0.4
I     7.6   -7.7   -3.7
H    -4.4   -6.1   -8.7
I    11.1    2.8    0.2
I    -1.5    3.0  -11.0
H    -9.4    1.0   -6.6
H    -2.8   -7.0   -8.7
N     9.7   -4.4    4.6
I     7.0    5.5   -7.3
C    -3.9   -7.0   -8.3
H     4.6   -6.1   -8.7
H     0.0    5.2  -10.4
I     3.5    1.5  -10.9
N     5.1   -1.6  -10.3
C     9.7    6.1    1.9
H     9.1   -5.2    5.0
P    -8.3    6.1   -5.3
H    -0.8   11.3   -2.4
H     5.6   -7.8   -6.5
H     4.2    8.7   -6.5
H     0.2   10.5    5.0
P    -3.7    8.8    6.7
H    10.0   -5.3    2.7
C    -8.2    0.6   -8.3
H     5.7    7.9   -6.5
N    -3.8    8.7   -6.8
I     7.7    8.0   -3.7
N     1.2   11.5   -1.9
I     7.1   -4.8    8.0
H     0.4    0.1   11.8
H    -0.4   11.4    2.8
C     0.1   11.4   -3.0
C     0.7   11.4    3.1
H    -7.9   -8.8    0.0
P     5.2    3.6   10.0
H    -4.8    8.7   -6.5
N     9.6    1.0   -6.9
H     0.3    1.9   11.7
H     6.1   -1.7  -10.0
I     6.2    6.2    8.1
P     9.8    0.9    6.7
H     9.3    7.1    2.3
H    10.1    0.4   -6.2
I    -1.2   -2.3   11.6
H    -3.7  -11.3   -1.3
H    -8.5    5.0    6.9
H     1.9   -9.7    6.8
C     0.9   -9.7    7.0
C     5.1   -7.0   -8.3
H     2.1   11.6   -2.4
H    11.0   -4.1   -2.4
H    -3.3    9.6   -6.5
H     1.1   -8.4    8.6
H    -8.6   -0.4   -8.4
H     1.6    5.9  -10.4
I    -6.4   -6.3    8.1
I     7.6    8.4    4.3
H   -11.9   -2.4    0.4
C    -8.0    6.0    7.0
H    10.0    2.0   -6.7
N     5.2    8.7   -6.8
N     0.7   11.4    4.6
H   -11.9   -1.5    2.7
P     5.3    8.8    6.7
N     0.6    6.0  -10.7
H    10.2    6.9    0.0
I    -5.5    1.5  -10.9
C     0.2    1.0   12.3
H    -7.3   -9.8    2.2
H     0.1    6.9  -10.3
I   -11.3   -5.2    0.3
H     1.7   11.3    4.9
H    -4.3    7.8   -8.7
I    11.8    0.1   -3.9
H    10.7    6.0    2.2
H     1.1   12.4   -1.3
H    -8.7   -8.7    2.3
I     6.8   10.5    0.3
H     5.2  -11.3   -1.3
H    10.6   -4.4    4.9
H    -4.4   -7.9   -8.7
H    -3.4  -11.7    3.0
C    -4.1   -2.0  -11.7
H    -8.7    1.4   -8.9
H     9.3   -0.4   -8.4
H     4.7    7.8   -8.7
I     2.9   -5.1  -11.2
H     1.2   12.2    2.7
P     9.6    6.1   -5.3
H   -12.2    2.8   -1.2
H     4.6   -7.9   -8.7
H    -2.8    8.7   -8.7
I     4.4    1.0   11.8
N     0.7   -9.3    8.4
H    -8.6    6.7    6.4
I     4.3   11.3   -3.5
I     4.4   11.1    4.2
C    -3.8    8.7   -8.3
I    -4.6    1.0   11.8
I    -7.5   -7.1   -7.3
I    -2.0  -10.2   -7.3
H     3.9   -2.0  -11.9
I    -0.3  -12.2   -3.6
I    -4.6   11.1    4.2
I     2.6    9.4    8.1
H     6.1   -7.0   -8.7
H     0.4  -10.7    6.9
H     9.5    5.0    6.9
I    12.1    0.3    4.1
I    -4.7   11.3   -3.5
H    -0.3   -9.3    8.7
H   -12.7   -0.7    0.4
I    -1.4    4.4   11.9
H    -3.7   -3.1  -11.8
I     3.3   -3.6   11.8
N    -8.4   -9.6    0.4
H     0.2   12.3   -3.6
P    -8.3   -4.5   -8.6
I    -1.1   -6.4  -11.0
C     9.8    0.6   -8.3
H     8.6   -9.5    0.1
H    -4.1  -11.0    5.2
H     9.2   -8.7    2.3
I    -2.9   -9.6    8.1
C     4.9   -2.0  -11.7
C    -8.4   -9.6    1.9
