         400
 sphere cut out from bulk 
I     0.9   -0.7    1.2
P    -1.7    0.7   -0.0
H     2.5   -1.7   -1.2
I     0.1    2.8   -1.7
H     1.5   -1.2   -2.7
I    -1.7   -1.2   -2.6
C     2.4   -1.7   -2.3
H     3.1    1.2    1.9
H    -0.7   -4.0   -0.6
I    -3.6   -1.5    1.4
I    -2.0    2.7    2.5
H     1.5    2.7    2.9
H    -1.7   -0.5    3.8
H     3.6    0.1   -2.5
H     2.5   -2.7   -2.7
H    -1.1    2.1   -3.9
N     3.3    1.7    2.7
H    -2.6   -3.8    0.8
N     3.6   -0.9   -2.8
H    -0.2   -0.3    4.7
P     2.7   -3.0    2.6
C     2.5    3.0    2.8
H     2.7    3.6    1.9
H     3.2    1.1    3.5
C    -1.3   -0.4    4.8
I    -4.4    2.1   -1.2
C    -1.3   -4.8   -0.5
H    -1.4   -4.6    1.6
I     4.5    2.1   -1.2
N    -2.0   -4.7    0.8
H    -4.4   -1.3   -2.5
H     4.5   -1.3   -2.5
H    -0.8    5.3   -0.5
H     3.6   -0.9   -3.9
H    -2.1   -4.8   -1.3
H     4.3    2.0    2.6
N    -1.5    2.0   -4.9
I     2.6   -4.8    0.0
H    -1.1    1.2   -5.3
H    -1.7    0.5    5.2
H    -4.6    2.0    2.6
H    -2.5    1.9   -4.7
I     5.4   -1.5    1.4
I     0.0   -4.4    3.7
P     2.7    4.4   -2.6
H     2.8    3.5    3.7
H    -0.8   -5.8   -0.5
H    -1.2   -2.5    5.1
H    -5.3    0.1   -2.5
I     2.9   -1.0    5.1
N    -1.6   -1.6    5.6
N    -5.3   -0.9   -2.8
H    -2.7   -5.4    1.0
H    -5.9    1.2    1.9
P    -1.7   -3.0   -5.2
H    -2.7    5.6    1.0
I     0.8   -4.6   -4.2
C    -1.4    6.2   -0.5
N    -5.6    1.7    2.7
H    -2.6   -1.7    5.7
I     2.9    2.6   -5.3
H    -5.3   -0.9   -3.9
C    -1.2    3.2   -5.7
H    -0.1    3.3   -5.8
H    -2.1    6.2   -1.3
I     2.6    6.2    0.0
H    -1.4    6.4    1.6
N    -2.1    6.4    0.8
I     0.1   -0.7   -6.7
H    -6.4   -1.7   -1.2
H    -5.7    1.1    3.5
H    -1.2   -1.5    6.5
H    -1.6    4.1   -5.2
I     0.8    2.8    6.2
P    -1.8    4.4    5.2
C    -6.5   -1.7   -2.3
H    -0.7    7.1   -0.6
I    -3.6   -5.1   -3.7
P     7.2    0.7   -0.0
P    -6.2   -3.0    2.6
H     6.4   -3.8    0.8
H    -6.2    3.6    1.9
H    -6.4   -2.7   -2.7
H    -1.7    3.1   -6.7
C    -6.4    3.0    2.8
I    -0.0    6.7    3.7
P     2.8   -6.7   -2.6
I    -4.3   -1.4   -6.2
I     0.8    6.4   -4.2
I     7.2   -1.2   -2.6
H    -2.6    7.3    0.8
I     6.9    2.7    2.5
I     4.6   -1.4   -6.2
I    -4.4   -5.0    4.2
I    -3.6    5.9   -3.7
I    -6.3   -4.8    0.0
H    -6.1    3.5    3.7
H    -7.4   -1.2   -2.7
I     4.5   -5.0    4.2
P    -6.2    4.4   -2.6
I    -6.1   -1.0    5.1
I    -3.7    2.3    6.7
I    -8.0   -0.7    1.2
H     7.2   -0.5    3.8
H     2.7   -7.5    1.9
H     6.4    1.9   -4.7
I     5.3   -5.1   -3.7
P     2.7    0.7    7.8
H     2.9   -3.9   -6.7
H     6.2   -5.4    1.0
P     2.7    0.7   -7.8
N     6.9   -4.7    0.8
H     6.2    5.6    1.0
I    -6.0    2.6   -5.3
H    -7.5    2.7    2.9
I     0.1   -8.3   -1.7
H     6.8   -4.8   -1.3
I    -4.4    6.0    4.2
I     4.5    6.0    4.2
P    -1.8   -6.7    5.2
H     6.3   -1.7    5.7
H     3.6   -4.5    6.6
I     0.0   -0.9    8.7
I     5.3    5.9   -3.7
H    -1.6   -6.9   -5.2
I     5.2    2.3    6.7
I    -6.3    6.2    0.0
H     2.8   -7.5    3.7
P     2.7    8.1    2.6
C     2.5   -8.1    2.8
H     7.2    0.5    5.2
I    -1.9   -8.4    2.5
H     1.5   -8.4    2.9
H    -1.3   -1.0   -8.8
H     7.8    2.1   -3.9
C     7.6   -4.8   -0.5
C     7.6   -0.4    4.8
H     3.3    4.7   -6.9
H     7.6   -4.6    1.6
N     7.4    2.0   -4.9
H     1.5   -4.7   -7.6
H     2.5    8.3   -2.7
H     8.3   -4.0   -0.6
C     2.6   -4.4   -7.6
H     1.4   -4.8    7.8
H     6.8    6.2   -1.3
N     7.3   -1.6    5.6
P     7.2   -3.0   -5.2
N     6.9    6.4    0.8
H     2.4    4.7    7.8
H     3.5   -3.5    8.0
I    -8.8    2.8   -1.7
I    -1.8   -4.9    7.9
I    -1.9   -4.8   -7.9
P    -6.1   -6.7   -2.6
H     7.8    1.2   -5.3
N     3.5   -4.5    7.6
I     9.0    2.8   -1.7
H    -5.4   -4.5    6.6
H     7.7   -2.5    5.1
H    -0.1   -7.7   -5.8
H     6.3    7.3    0.8
P    -1.7    8.0   -5.2
H     8.1    5.3   -0.5
C    -1.2   -7.8   -5.7
H    -2.2    2.6    9.1
H     2.8   -3.8   -8.5
I     1.0    2.9   -9.3
H     2.4    9.4   -1.2
H    -1.1   -8.9   -3.9
C     7.6    6.2   -0.5
H     7.3    4.1   -5.2
H    -6.0   -3.9   -6.7
P     7.1    4.4    5.2
I    -3.5    2.1   -9.0
N    -2.0   -1.0   -9.6
H     3.5    6.5    6.6
H    -6.2   -7.5    1.9
H     8.7   -0.3    4.7
H    -2.5   -0.1   -9.6
H     3.3   -6.3   -6.9
I     9.8   -0.7    1.2
C     2.4    9.4   -2.3
H     1.5    6.3   -7.6
H    -2.6   -1.8   -9.5
P    -6.2    0.7   -7.8
H     8.2   -5.8   -0.5
C     2.4   -5.3    8.1
I    -4.4   -8.9   -1.2
H     7.5    6.4    1.6
N     3.4    5.4   -7.8
P    -6.2    0.7    7.8
H     1.4    6.2    7.8
H    -1.2    8.6    5.1
I     4.6   -8.9   -1.2
C     7.7    3.2   -5.7
H    -5.6    4.7   -6.9
H    -0.8    1.7   10.0
I    -1.8    6.2    7.9
N     3.4   -5.7   -7.8
I    -8.1   -4.6   -4.2
H     2.9    7.1   -6.7
C     2.3    5.7    8.1
H    -9.1   -0.3    4.7
H    -5.4   -3.5    8.0
H     7.8   -1.5    6.5
N     3.4   -9.3    2.7
I    -1.7    9.8   -2.6
I    -1.9    6.3   -7.9
I    -3.6    9.5    1.4
H     1.5    9.8   -2.7
H     2.4   -6.3    7.8
H     3.1    4.8   -8.6
H     4.4   -4.9    7.9
H     7.3    3.1   -6.7
N    -1.5   -9.0   -4.9
I     0.8   -8.2    6.2
H    -4.5   -4.9    7.9
H    -6.1   -7.5    3.7
N    -5.4   -4.5    7.6
C    -1.4    2.6    9.9
H    -9.6   -4.0   -0.6
H     4.4   -9.1    2.6
I    -4.4   -1.5    9.3
I     2.9   -8.4   -5.3
I     4.5   -1.5    9.3
C     2.6    6.6   -7.6
H    -0.7    3.4    9.8
P    -1.6  -10.3   -0.0
I     0.9   10.3    1.2
H    -4.5   -9.1    2.6
H     3.1   -9.9    1.9
H    -1.6   -7.9   -6.7
H     4.4   -5.4   -7.8
P    -6.2    8.1    2.6
H    -4.5   -5.4   -7.8
H    -2.5   -9.1   -4.7
H     4.4    5.6   -7.8
I    -8.9   -4.4    3.7
P   -10.6    0.7   -0.0
N     3.5    6.5    7.6
I     8.9   -4.4    3.7
I    -8.2    2.8    6.2
H    -4.5    5.6   -7.8
C    -6.4   -8.1    2.8
H    -5.4    6.5    6.6
I     5.4    2.1   -9.0
I     2.7   -1.2  -10.4
H    10.4   -1.2   -2.7
H     8.2    7.1   -0.6
H    -6.4    8.3   -2.7
C    -6.3   -4.4   -7.6
H    -5.6   -6.3   -6.9
H     2.4   -5.3    9.2
H     4.4    6.1    7.9
N    -5.5    5.4   -7.8
P    -1.7   -2.9   10.4
H   -10.0    2.1   -3.9
H    -4.5    6.1    7.9
H    -4.4    9.7   -2.5
H     4.5    9.7   -2.5
I   -10.6   -1.2   -2.6
H     3.2   -9.9    3.5
H     8.8    3.3   -5.8
I     5.3    9.5    1.4
H    -9.7    5.3   -0.5
H     3.1   -6.2   -8.6
N    -5.5   -5.7   -7.8
N    -1.6    9.4    5.6
I     2.6    2.6   10.5
C    -1.3   -1.2  -10.9
H    10.4    2.7    2.9
P     7.1   -6.7    5.2
H    -0.6   -0.3  -11.1
N     3.6   10.1   -2.8
I    -8.8   -0.7   -6.7
H     2.4    5.8    9.2
H    -0.7   -2.1  -10.9
N    -5.5   -9.3    2.7
I    -8.1    6.4   -4.2
H    -6.5    4.7    7.8
I     7.0   -8.4    2.5
H    -6.2   -3.8   -8.5
H    -9.0    3.3   -5.8
H    -2.6    9.3    5.7
I     9.0   -0.7   -6.7
C   -10.2   -0.4    4.8
H    -1.1   -9.9   -5.3
H    -9.7   -5.8   -0.5
H    -1.7   10.5    3.8
H   -10.6   -0.5    3.8
C   -10.2   -4.8   -0.5
H     7.3   -6.9   -5.2
N    -5.4    6.5    7.6
H   -10.3   -4.6    1.6
H   -10.0    1.2   -5.3
H    -5.8    4.8   -8.6
H     3.6   10.1   -3.9
H    -6.5    9.4   -1.2
P    -1.6    4.3  -10.5
H     3.5    7.5    8.0
I   -10.9    2.7    2.5
H     2.7    7.2   -8.5
H     6.3   -1.8   -9.5
H    -6.0    7.1   -6.7
H     6.4   -0.1   -9.6
H    -7.4   -8.4    2.9
H    11.4   -1.7   -1.2
H    -7.4   -4.7   -7.6
I     2.8   10.0    5.1
H   -10.1   -2.5    5.1
I     9.8   -4.6   -4.2
H    -5.8   -9.9    1.9
I     7.0   -4.8   -7.9
I    -3.7   -8.7    6.7
H    -1.2    9.5    6.5
I    -6.0   -8.4   -5.3
C    -6.5    9.4   -2.3
H     6.8    2.6    9.1
I     7.1   -4.9    7.9
N   -10.4    2.0   -4.9
C    11.3   -1.7   -2.3
H    -0.2   10.7    4.7
C    -6.5   -5.3    8.1
C    -1.3   10.6    4.8
I     8.9    6.7    3.7
H     7.6   -1.0   -8.8
I    -8.9    6.7    3.7
N    -2.1    2.7   11.2
N    -5.3   10.1   -2.8
H     3.6  -11.0   -2.5
H    -7.5   -4.8    7.8
I     0.9  -11.7    1.2
I     9.7    2.8    6.2
H   -10.6    0.5    5.2
P    -1.7   11.8   -0.0
H    -2.8    2.0   11.4
H    -1.7  -10.6    5.2
C    -6.3    6.6   -7.6
N     6.9   -1.0   -9.6
H    -6.5   -6.3    7.8
N   -10.9   -4.7    0.8
C    -6.6    5.7    8.1
H    -9.6    7.1   -0.6
H     3.6   11.1   -2.5
P     7.2    8.0   -5.2
H    -5.7   -9.9    3.5
H    -2.0   -1.2  -11.7
N   -10.5   -1.6    5.6
C   -10.3    6.2   -0.5
H    11.4   -2.7   -2.7
C   -10.1    3.2   -5.7
H    -5.8   -6.2   -8.6
H   -11.0   -4.8   -1.3
H     2.5    2.0  -11.7
H    -5.3   10.1   -3.9
H   -10.1   -1.5    6.5
H   -11.5   -3.8    0.8
H     6.4   -9.1   -4.7
C    11.4    3.0    2.8
H    -2.6    3.6   11.3
H    12.0    1.2    1.9
I    -6.2   -1.2  -10.4
H    -5.4    7.5    8.0
I     5.2   -8.7    6.7
I    -8.8   -8.3   -1.7
H   -10.3    6.4    1.6
P   -10.6   -3.0   -5.2
P    11.6   -3.0    2.6
H    11.6    3.6    1.9
I     7.1    6.2    7.9
I    -4.3    9.6   -6.2
H    -0.2  -11.3    4.7
I     0.0   10.3   -6.7
H    -1.7  -11.6    3.8
I     7.0    6.3   -7.9
H    -7.4    6.3   -7.6
I     1.0   -8.1   -9.3
I     4.6    9.6   -6.2
I     9.0   -8.3   -1.7
C     7.7   -7.8   -5.7
I     9.7    6.4   -4.2
I     7.2    9.8   -2.6
H    -5.3  -11.0   -2.5
H    -0.7   -7.6    9.8
I     0.8   -4.3   11.6
H    -1.4    2.8   12.0
H   -10.5    4.1   -5.2
C    -1.2  -11.4    4.8
H    -7.5    6.2    7.8
H    -6.5   -5.3    9.2
I    -8.9   -0.9    8.7
H     7.8   -8.9   -3.9
I     8.9   -0.9    8.7
I    -6.4    2.6   10.5
I    11.6   -4.8    0.0
P    -1.6   -6.7  -10.5
I    -7.9    2.9   -9.3
H   -11.5    1.9   -4.7
H    -5.3   11.1   -2.5
