         400
 sphere cut out from bulk 
P    -0.7    1.1   -0.0
I    -0.9   -1.6   -1.8
I     2.5    1.1    0.0
I    -0.9   -0.8    2.6
H     1.4   -3.1   -0.9
H    -2.7   -2.5   -0.3
H     2.8   -2.4    1.1
I    -0.7    2.9   -2.7
I    -4.0    1.1    0.0
H     2.6    1.2   -3.1
I    -0.8    3.7    1.8
C     2.1   -3.8   -0.4
H     1.6    0.1    4.1
N     3.1   -3.1    0.4
H    -2.6    0.7    3.6
N    -3.3   -3.1    0.4
H     3.7   -2.5   -0.3
H    -3.7   -2.4    1.1
H     1.5   -4.4    0.3
H    -2.7   -3.7    0.8
H     1.6    4.5    0.3
H     2.4   -0.2   -4.2
H     2.8    2.1    3.5
C     2.7    0.9   -4.1
H    -3.9    1.2   -3.1
H     1.0    1.7   -4.8
H    -2.6    1.0   -4.4
H     2.6    4.4   -1.1
H     2.6   -4.5   -1.1
H     3.8    0.7    3.6
C     2.1    0.6    4.8
H     3.8   -3.7    0.8
H    -3.6    2.1    3.5
N     3.2    1.4    4.1
N    -3.2    1.4    4.1
C     2.1    5.1   -0.4
C    -3.7    0.9   -4.1
I    -0.9   -5.2    1.8
P    -0.9   -3.3   -4.4
N     2.0    1.8   -5.0
P    -0.8   -3.4    4.5
H     1.5    1.3    5.4
H    -2.6    1.9    4.8
P     5.7    1.1   -0.0
C    -4.4   -3.8   -0.4
H    -2.6    5.2    0.8
H    -4.0   -0.2   -4.2
H     3.8    1.0   -4.4
H    -5.0   -3.1   -0.9
H    -3.8    4.4   -1.1
H    -3.9   -4.5   -1.1
I     5.5   -1.6   -1.8
H     2.3    2.8   -4.9
I     2.4   -3.4    4.4
H     1.5    5.8   -0.9
H     2.6   -0.1    5.5
I     5.6   -0.8    2.6
I     2.4   -3.5   -4.6
I    -0.9   -0.7   -6.2
H    -4.9    0.1    4.1
H     3.8    1.9    4.8
H     3.9    5.2    0.8
C    -4.3    0.6    4.8
H     2.1    1.5   -6.0
H    -4.9   -4.4    0.3
I    -0.8   -6.0   -2.7
H    -4.9    4.5    0.3
N     3.2    5.8    0.4
C    -4.3    5.1   -0.4
N    -3.2    5.8    0.4
H    -3.8   -0.1    5.5
I    -4.0   -3.4    4.4
H    -2.6    6.4   -0.3
I     5.7    2.9   -2.7
N    -4.5    1.8   -5.0
I    -0.8    2.9    6.3
I     5.6    3.7    1.8
H    -4.2    2.8   -4.9
I    -4.1   -3.5   -4.6
H     2.8    6.5    1.1
P    -0.7    5.5    4.5
P    -0.8    5.6   -4.4
P    -7.2    1.1   -0.0
I    -0.8   -1.5    7.1
H    -4.9    1.3    5.4
H     3.8    6.4   -0.3
H    -5.5    1.7   -4.8
H    -3.6    6.5    1.1
I     2.5    5.5    4.4
I     2.4    5.4   -4.6
H    -4.4    1.5   -6.0
I    -0.8    7.3   -1.8
H    -4.9    5.8   -0.9
I    -7.3   -1.6   -1.8
I    -7.3   -0.8    2.6
I     5.5   -5.2    1.8
P     5.6   -3.3   -4.4
P    -0.8   -7.8   -0.0
P     5.7   -3.4    4.5
I    -0.8    3.7   -7.1
I    -4.0    5.5    4.4
H     2.8   -6.8    3.5
I    -7.2    2.9   -2.7
I    -4.0    5.4   -4.6
H     2.2   -6.2   -4.9
I     2.4   -7.8    0.0
H     2.6   -3.0   -7.3
I    -7.3    3.7    1.8
I     5.6   -0.7   -6.2
H    -3.7   -6.8    3.5
H     7.9   -3.1   -0.9
H     2.4   -3.3    7.6
I    -0.8    8.1    2.6
H     2.5   -7.7   -3.1
I     5.7   -6.0   -2.7
H     0.9   -7.2   -4.8
H    -3.8   -3.0   -7.3
I    -0.9   -6.0    6.3
I    -0.9   -5.2   -7.1
I    -4.1   -7.8    0.0
I     5.6    2.9    6.3
H    -2.7   -7.0    4.8
N     1.9   -7.2   -5.0
H     2.5   -1.7   -8.4
H    -4.3   -6.2   -4.9
H     7.4    1.7   -4.8
I     8.9    1.1    0.0
H     8.0    0.1    4.1
P    -0.9    1.1   -8.9
P    -0.7    1.1    8.9
I     2.3    1.0   -8.7
H     7.9   -4.4    0.3
P     5.7    5.6   -4.4
N     3.1   -7.5    4.1
P    -7.2   -3.4    4.5
N     2.8   -2.7   -8.3
P     5.7    5.5    4.5
P    -7.3   -3.3   -4.4
H    -3.9   -7.7   -3.1
N    -3.3   -7.5    4.1
H    -4.1   -3.3    7.6
I    -7.3   -5.2    1.8
H     8.0    4.5    0.3
I     5.7   -1.5    7.1
H     3.8   -7.0    4.8
H    -2.7   -8.2    3.6
C     8.5   -3.8   -0.4
H    -2.7   -2.8   -8.5
I     5.6    7.3   -1.8
C     2.7   -8.0   -4.1
H     1.5   -7.6    5.4
I     2.5    1.0    9.1
H    -4.0   -1.7   -8.4
H    -2.7   -8.0   -4.4
N    -3.7   -2.7   -8.3
H    -9.1   -2.5   -0.3
H     1.1   -3.5    8.8
C     2.2   -3.6    8.6
H     9.2   -2.4    1.1
H     9.0    1.2   -3.1
I    -7.3   -0.7   -6.2
P     5.6   -7.8   -0.0
H     0.9   -3.5   -9.0
I    -4.1    1.0   -8.7
H     3.8   -8.2    3.6
H     8.0    1.3    5.4
H     3.8   -2.8   -8.5
H     2.4    5.6    7.6
H    -9.0    0.7    3.6
H     2.0   -7.4   -6.0
I    -7.2   -6.0   -2.7
C    -3.8   -8.0   -4.1
I     5.6    3.7   -7.1
H     2.7    6.0   -7.3
H     8.8   -0.2   -4.2
H     3.7   -8.0   -4.4
C     2.1   -8.3    4.8
H     1.5   -8.8    4.1
N    -4.6   -7.2   -5.0
H     2.7   -1.7    9.4
H    -9.1   -3.7    0.8
C     8.6    0.6    4.8
H     8.0    5.8   -0.9
N     8.4    1.8   -5.0
I    -4.0    1.0    9.1
C     8.6    5.1   -0.4
H    -2.5   -2.8    9.3
I    -7.2    2.9    6.3
P    -0.7   10.0   -0.0
H     1.6    9.0    4.1
H     2.5    8.8   -4.2
N     9.6   -3.1    0.4
H     2.6    4.3    8.8
I    -0.9   -9.7    2.6
C     2.0   -3.6   -9.2
P    -7.1    5.5    4.5
C     9.2    0.9   -4.1
H     9.0   -4.5   -1.1
H     9.3    2.1    3.5
H    -9.1    1.0   -4.4
H    -3.8    6.0   -7.3
H     9.1    4.4   -1.1
P    -7.2    5.6   -4.4
H     2.5   -4.6    8.8
N    -9.7   -3.1    0.4
H    -3.8   -1.7    9.4
H    -4.0    5.6    7.6
C    -4.3   -3.6    8.6
I     5.7    8.1    2.6
I    -7.2   -1.5    7.1
H    -5.6   -7.2   -4.8
H     2.3   -9.1   -4.2
I    -0.7    7.4    7.1
H     2.4    4.3   -9.0
N     2.9   -2.7    9.5
I     2.5   10.0    0.0
I    -0.8    8.2   -6.2
C     2.2    5.3    8.6
I     5.6   -6.0    6.3
H     8.7    2.8   -4.9
I     5.5   -5.2   -7.1
H     1.2    5.4    8.8
H     2.3   -4.6   -9.0
H    -9.1    1.9    4.8
H    -9.0    5.2    0.8
H     3.9   -2.8    9.3
I     8.9   -3.4    4.4
H   -10.1   -2.4    1.1
N    -3.5   -2.7    9.5
I   -10.4    1.1    0.0
I    -7.3    7.3   -1.8
H    -3.9    4.3    8.8
H    10.2   -2.5   -0.3
H    -4.0    8.8   -4.2
P     5.5    1.1   -8.9
H     8.5    1.5   -6.0
H     1.0    5.4   -9.0
I     8.8   -3.5   -4.6
C    -4.4   -8.3    4.8
H    -4.4   -7.4   -6.0
H    -5.0   -7.6    5.4
N     9.7    1.4    4.1
N    -9.7    1.4    4.1
H     9.1   -0.1    5.5
H    -2.5    9.7    3.6
P     5.7    1.1    8.9
H    -4.0   -4.6    8.8
P    -7.2   -7.8   -0.0
I    -1.0  -10.5   -1.8
I    -3.9   10.0    0.0
N     2.8    6.2   -8.3
H     2.7    8.8    5.5
H    -4.1    4.3   -9.0
H    -2.6    6.1   -8.5
H    -4.1   -9.1   -4.2
H   -10.3    1.2   -3.1
I    -0.9   -1.6  -10.7
C     2.1    5.3   -9.2
H   -10.1    2.1    3.5
I    -7.3    3.7   -7.1
C    -4.5   -3.6   -9.2
H     2.6   -9.0    5.5
H    -5.3   -3.5    8.8
H     2.7   10.1   -3.1
H    -5.0   -8.8    4.1
H    10.2   -3.7    0.8
C     2.2    9.5    4.8
H    10.3    0.7    3.6
C    -4.2    5.3    8.6
H    -4.1   -4.6   -9.0
C   -10.1    0.9   -4.1
H     2.2   -3.3  -10.2
N    -3.6    6.2   -8.3
C     2.8    9.8   -4.1
H    -4.8    9.0    4.1
H     3.9    9.7    3.6
H    -3.8    8.8    5.5
H    -9.1    6.4   -0.3
H    -5.5   -3.5   -9.0
H    -2.6    9.9   -4.4
H     3.8    6.1   -8.5
H    10.2    1.0   -4.4
I    -7.2    8.1    2.6
C    -3.6    9.8   -4.1
H   -10.3    4.4   -1.1
H    -3.8   10.1   -3.1
H     2.8   -3.0   10.5
H    -3.9   -9.0    5.5
N     9.7    5.8    0.4
H   -10.5   -0.2   -4.2
N    -9.7    5.8    0.4
H   -10.3   -4.5   -1.1
H     7.3   -7.2   -4.8
I    -0.7    3.8   10.7
H     9.3    6.5    1.1
I    -7.3   -6.0    6.3
I     8.9    5.4   -4.6
H     2.6    7.2   -8.4
H    -2.4    6.1    9.3
I     8.9    5.5    4.4
I    -7.4   -5.2   -7.1
I     5.5   -9.7    2.6
C   -10.8   -3.8   -0.4
H     3.9    9.9   -4.4
H    -3.7   -3.0   10.5
C    -4.4    5.3   -9.2
H    10.3    1.9    4.8
P    -7.2    1.1    8.9
C    -4.2    9.5    4.8
I    -0.9   -9.6   -6.2
P     5.8   10.0   -0.0
H    10.3    5.2    0.8
N    -3.2   10.3    4.1
H    -4.3   -3.3  -10.2
P    -7.4    1.1   -8.9
N     3.3   10.3    4.1
I    -0.7   -0.7   11.6
H    -5.3    5.4    8.8
H   -10.3   -0.1    5.5
H     8.6   -6.2   -4.9
H     1.0   10.6   -4.8
H     1.6   10.3    5.4
H     2.7  -11.4    1.1
N     3.0    6.2    9.5
I     5.6    8.2   -6.2
I     5.7    7.4    7.1
H    -3.9    7.2   -8.4
H    -2.8  -11.5   -0.3
C   -10.7    0.6    4.8
I     8.8   -7.8    0.0
H    -5.4    5.4   -9.0
H     4.0    6.1    9.3
I   -10.5   -3.4    4.4
N    -3.4    6.2    9.5
P    -1.0   -7.8   -8.9
P    -0.8   -7.8    8.9
H     2.9   11.0    3.5
H   -11.4   -3.1   -0.9
H     2.3    5.6  -10.2
C   -10.7    5.1   -0.4
I    -0.7   -5.2   10.7
I    -1.0    2.9  -11.5
N     2.0   10.7   -5.0
I     5.5  -10.5   -1.8
H     9.2   -6.8    3.5
I     2.2   -7.9   -8.7
H    -3.8  -11.4    1.1
I   -10.5   -3.5   -4.6
H     9.1   -3.0   -7.3
H   -10.1    6.5    1.1
H     3.7  -11.5   -0.3
H   -10.6    2.8   -4.9
H   -11.3    0.1    4.1
H     8.8   -3.3    7.6
H    -3.5   11.0    3.5
N     8.3   -7.2   -5.0
H    10.3    6.4   -0.3
H     2.2    1.5   11.8
I     5.5   -1.6  -10.7
H    -2.5   10.8    4.8
H     7.5   -3.5    8.8
H     1.4  -12.0   -0.9
H     2.7    7.2    9.4
H     7.4   -3.5   -9.0
I    -0.6   11.8   -2.7
N   -10.9    1.8   -5.0
H     2.1   10.4   -6.0
H   -11.3    4.5    0.3
P    12.2    1.1   -0.0
H     7.9   -7.6    5.4
H     9.0   -7.7   -3.1
H   -11.4   -4.4    0.3
I    12.0   -1.6   -1.8
P    -7.1   10.0   -0.0
I     2.4   -7.9    9.1
I    12.0   -0.8    2.6
H    -3.7    7.2    9.4
N     3.1  -12.0    0.4
I     8.8    1.0   -8.7
H     2.9    6.0   10.5
H     8.9   -1.7   -8.4
H    -4.2    5.6  -10.2
I    -7.4   -9.7    2.6
H   -10.8    1.5   -6.0
N    -3.4  -12.0    0.4
H     3.9   10.8    4.8
H    -9.1   -7.0    4.8
I    -7.2    7.4    7.1
H     2.5   -0.1  -12.3
I    -4.2   -7.9   -8.7
H     1.4    1.3  -12.4
H     7.9   -8.8    4.1
H    -4.8   10.3    5.4
I   -10.4    5.5    4.4
H    -3.6    6.0   10.5
N    -4.4   10.7   -5.0
I    -7.3    8.2   -6.2
H    -4.2    1.5   11.8
H   -11.4    1.3    5.4
I   -10.5    5.4   -4.6
