         400
 sphere cut out from bulk 
I    -0.1    0.4    1.2
P    -0.0   -1.9   -1.2
I     2.4    0.0   -2.2
P     2.3    2.3    0.2
I    -2.5    0.0   -2.2
P    -2.5    2.3    0.1
I    -0.1    3.9   -1.2
H    -1.0   -3.2    2.4
I     2.4   -3.4    0.3
I    -2.5   -3.4    0.3
H     0.2    0.9    4.3
H     0.3   -2.9    3.5
N    -0.6   -3.5    3.3
I     4.9    0.4    1.2
H    -1.5    0.6    4.9
I    -5.0    0.4    1.2
I    -0.0   -3.5   -3.8
C    -0.5    1.0    5.1
H     2.5    0.1   -4.7
I     2.3    3.7    3.0
H    -1.2   -3.2    4.1
P     4.9   -1.9   -1.1
P    -4.9   -1.9   -1.1
I    -2.6    4.0    2.8
H    -1.0    3.0    4.5
H    -1.6   -0.7   -5.3
H     3.4    1.7    4.3
H     0.4   -5.2    2.5
H     3.2    0.1    4.8
N    -0.6    2.5    5.3
H     4.5    0.5    3.8
C    -0.3   -5.0    3.3
I     1.9   -1.9    5.4
H    -0.1    0.6    6.0
N     3.9    0.9    4.6
H     2.5    4.8   -2.9
H    -1.7    5.4   -2.6
N     2.5    0.2   -5.7
H     1.7    0.8   -6.0
H     0.3    2.9    5.5
I     4.8    3.9   -1.1
H     1.6    4.2   -4.4
H    -3.4   -1.1   -5.3
H    -3.0    4.0   -4.0
H     1.5   -1.7   -6.0
I    -5.0    3.9   -1.1
C    -2.4   -1.2   -5.9
I    -2.9   -1.9    5.4
H    -1.2   -5.5    3.2
H    -5.3    0.5    3.8
H    -1.4    4.3   -4.8
H    -4.5   -3.7    3.1
H     3.7   -4.0    3.8
C     2.5    4.7   -4.0
H     4.0   -5.1    1.6
H     0.2   -5.2    4.3
H    -1.8   -5.3   -3.8
H    -1.3    2.7    6.1
H    -2.2   -2.2   -6.2
C     2.5   -1.2   -6.3
H     3.4    0.7   -6.0
H     3.4    4.2   -4.3
C    -2.4    4.7   -4.5
H     1.6   -5.2   -4.3
I     0.1    2.4   -6.6
N    -2.2    5.8   -3.4
H     3.3   -1.7   -6.0
I     4.9   -3.6   -3.7
I    -4.9   -3.6   -3.7
H     0.6    6.7    2.5
H     5.3   -3.7    3.1
H    -1.0    6.4    3.2
H    -3.3   -5.6   -3.2
H    -1.9   -6.5   -2.6
C     4.6   -4.5    3.5
H    -4.4    1.9    5.6
N    -2.4   -6.1   -3.4
H     4.0    5.6    2.9
H    -2.8    0.7   -6.9
N     4.4   -5.5    2.5
H     3.2   -5.3   -4.3
N    -5.9    0.9    4.6
N    -2.6   -0.3   -7.1
C     4.7    1.1    5.8
H    -4.3    5.8    2.3
I     7.3    0.0   -2.2
P     7.3    2.3    0.1
H    -3.0    6.3   -3.2
C    -0.1    6.9    3.3
H    -4.7    0.2    6.1
C    -5.2   -4.5    3.5
H    -1.5    6.6   -3.8
I    -7.4    0.0   -2.2
N     2.4   -5.8   -4.6
H     3.7   -6.3    2.9
H    -1.7   -0.3   -7.7
C    -5.1    1.1    5.8
P    -7.5    2.3    0.2
H     2.5   -1.0   -7.4
H     4.0    1.4    6.6
H    -4.6   -6.1    2.3
H     0.4    6.7    4.3
H    -6.4    1.7    4.3
H    -5.9   -5.1    1.6
H    -2.9    5.2   -5.3
H     2.3   -7.1   -2.9
H     5.2    0.2    6.1
H     5.4    1.9    5.6
N     2.6    6.1   -4.6
H     4.2    6.7    1.6
I     7.4   -3.4    0.3
I    -0.3   -8.0   -1.2
H    -4.7   -5.0    4.4
H    -6.6    0.1    4.8
N    -5.4   -5.5    2.5
H     1.8    6.7   -4.3
I    -7.4   -3.4    0.3
N     4.6    6.3    2.5
H    -6.2   -4.0    3.8
H     5.5    5.8    2.3
H     5.3   -6.1    2.3
H     5.1   -5.0    4.4
I    -4.8    2.5   -6.5
H     6.5   -1.1   -5.3
H    -3.3   -0.7   -7.7
H     2.4   -5.8   -5.7
C     2.3   -7.2   -4.0
N    -5.2    6.3    2.5
I     5.0    2.5   -6.5
H     3.5    6.6   -4.3
H    -5.9    5.6    2.9
H    -7.3    0.1   -4.7
H     2.6    6.0   -5.7
I     7.3    4.0    2.8
H    -6.4    4.2   -4.3
I    -2.2    8.5    0.3
C    -2.6   -7.1   -4.5
I    -2.8   -7.9    2.8
I     2.0    2.8    8.1
H    -6.5    0.7   -6.0
H     6.8    4.0   -4.0
I     2.6    8.5    0.3
I    -7.5    3.7    3.0
I    -0.6   -5.3    7.1
H    -5.8    1.4    6.6
H    -5.6    6.7    1.6
H     1.4   -7.7   -4.4
I     2.1   -8.2    3.0
I     6.9   -1.9    5.4
P     1.9   -3.4    8.1
H    -6.5   -1.7   -6.0
N    -0.4    8.4    3.3
H    -0.8    8.7    2.4
I    -2.8    2.9    8.1
H    -1.6   -7.6   -4.8
H    -3.1   -6.7   -5.3
H    -6.1   -6.3    2.9
H     6.6   -5.6   -3.2
H    -7.3    4.8   -2.9
I     0.2    8.4   -3.8
I     4.6   -8.0   -1.1
N    -7.3    0.2   -5.7
P    -3.0   -3.3    8.2
H    -4.5    6.9    4.4
H     3.2   -7.7   -4.3
I    -0.1   -2.0   -9.2
H    -3.2   -7.9   -4.0
H    -6.6   -5.3   -4.3
C     7.4   -1.2   -5.9
C     4.9    7.4    3.5
H     3.9    7.8    3.8
C    -7.3    4.7   -4.0
C    -5.0    7.4    3.5
I    -5.2   -8.0   -1.1
H     0.5    9.0    3.5
H    -1.0    8.7    4.1
H     8.3    0.6    4.9
H     8.8   -3.2    2.4
I    -0.3    6.6    7.1
H    -4.3    8.1    3.1
I    -0.5   -1.8    9.5
H     8.2   -0.7   -5.3
H     5.3    6.9    4.4
P     2.1   -9.5    0.2
H     6.8    6.3   -3.2
I    -7.9   -1.9    5.4
C    -7.4   -1.2   -6.3
I     9.8    0.4    1.2
H     7.0    0.7   -6.9
C     7.5    4.7   -4.5
I     4.4   -5.3    7.2
P    -2.8   -9.6    0.1
I    -9.9    0.4    1.2
H     8.6   -3.2    4.1
P     9.8   -1.9   -1.2
H     7.6   -2.2   -6.2
H    -1.3   -8.9    4.5
P     0.2   10.0   -1.2
P     0.1    4.0   -9.3
P    -9.9   -1.9   -1.2
H     8.1    5.4   -2.6
H     6.5   -0.7   -7.7
H    -8.1    0.8   -6.0
H    -6.4    6.6   -4.3
N     7.3   -0.3   -7.1
H     7.0    5.2   -5.3
H    -8.2    4.2   -4.4
N     7.7    5.8   -3.4
N     7.5   -6.1   -3.4
I    -4.7    8.3   -3.7
I     2.4   -5.8   -8.1
H     5.5    8.1    3.1
H     8.8    3.0    4.5
I    -2.5   -5.9   -8.1
I    -2.3    6.0   -8.1
H    -8.3   -1.7   -6.0
H     8.1   -5.3   -3.8
I     2.6    6.0   -8.1
I     5.1    8.3   -3.7
N     9.3   -3.5    3.3
I    -5.5   -5.3    7.2
N    -7.4   -5.8   -4.6
N    -7.2    6.1   -4.6
H    -7.4   -1.0   -7.4
H     0.1   -9.0    5.5
P    -0.3    4.4    9.6
H    -5.9    7.8    3.8
I     9.7    3.9   -1.2
I     4.3   -1.7    9.5
H     7.9   -6.5   -2.6
H    -9.5   -2.9    3.5
H     8.4    4.3   -4.8
H    -9.7    0.9    4.3
I     4.9   -2.1   -9.2
I    -4.9   -2.1   -9.2
H    -8.2   -5.2   -4.3
C     9.3    1.0    5.1
H     8.6   -5.5    3.2
I    -9.9    3.9   -1.2
H    -7.6   -7.1   -2.9
I     4.6    6.6    7.2
N    -0.8   -9.4    5.3
H     8.6    2.7    6.1
H     6.7   -6.7   -5.3
H    10.0    0.9    4.3
N     9.2    2.5    5.3
I     7.1   -7.9    2.8
H    -7.2    6.0   -5.7
H    -7.4   -5.8   -5.7
H     1.1   -0.4   11.0
H    -6.6   -7.7   -4.3
I     9.8   -3.5   -3.8
H    -9.5   -5.2    2.5
H     6.6   -7.9   -4.0
I    -5.3    6.6    7.2
I    -5.5   -1.7    9.5
P    -4.8    4.1   -9.1
H    10.1   -2.9    3.5
I    -7.2    8.5    0.3
P    -4.7   10.0   -1.1
C     7.2   -7.1   -4.5
I    -2.4    2.5  -10.6
C    -7.5   -7.2   -4.0
I     7.1    2.9    8.1
I    -9.9   -3.5   -3.8
H    -1.5   -9.2    6.1
P     6.8   -3.3    8.2
H     8.1   -0.3   -7.7
I     2.6    2.6  -10.6
P     5.1    4.1   -9.1
H     8.3    6.6   -3.8
C     9.5   -5.0    3.3
P     5.1   10.0   -1.1
H    -8.0    6.7   -4.3
P     4.5    4.3    9.5
H     8.8    6.4    3.2
P     2.4   -3.6  -10.5
H     2.7   -0.1   11.0
I     7.6    8.5    0.3
H    -9.5    2.9    5.5
H     9.7    0.6    6.0
P    -2.5   -3.7  -10.6
N   -10.4   -3.5    3.3
H     3.2  -10.2    4.3
I    -0.2   -9.4   -6.6
I     2.1   10.0    5.4
I    -0.3  -11.5    1.2
C   -10.3    1.0    5.1
H   -10.9   -3.2    2.4
I    -7.8    2.8    8.1
I    -2.7    9.9    5.4
H   -10.0    0.6    6.0
H    -2.0    9.7   -6.2
I    -7.7   -8.2    3.0
P    -5.3    4.3    9.5
H    -9.2    6.7    2.5
H    -2.9   -0.8   11.3
H    10.2   -5.2    2.5
N     1.8   -0.1   11.6
C   -10.1   -5.0    3.3
H    -9.6   -5.2    4.3
H    -0.0  -11.0    4.3
P    -7.9   -3.4    8.1
H    10.1    2.9    5.5
P     7.1   -9.6    0.1
P     2.1    8.5    8.1
H     1.8   10.2   -6.0
H     1.6    0.9   11.8
N   -10.5    2.5    5.3
C    -0.7  -10.9    5.1
I    -9.8    2.4   -6.6
H    10.0   -5.2    4.3
I     1.9   -5.6   10.6
P    -0.1   -7.8   -9.3
H     8.2   -7.6   -4.8
H    -0.4    1.1  -12.1
H   -10.9    3.0    4.5
I     9.9    2.4   -6.6
P    -2.8    8.6    8.2
P    -0.6   -7.5    9.6
H    -8.4   -7.7   -4.4
H   -11.1   -3.2    4.1
I     2.2  -11.8   -2.2
P    -7.7   -9.5    0.2
H    -9.4    6.7    4.3
H     3.6   10.1   -6.0
I     0.1   12.3    1.2
I    -2.3   11.9   -2.2
I     1.8   -9.1    8.1
H   -11.3    0.6    4.9
I    -3.0   -5.6   10.6
H    -1.7  -11.2    4.9
I    -2.7  -11.9   -2.2
H    -4.6  -10.0    5.6
P    12.2    2.3    0.2
I     2.6   11.9   -2.2
H    -3.2   10.8   -5.3
I     7.3   -5.9   -8.1
I    -7.2    6.0   -8.1
H    -1.4   11.2   -5.3
I     4.8   -9.4   -6.5
C     9.8    6.9    3.3
C    -2.2   10.7   -5.9
I    12.2    0.0   -2.2
I    -7.4   -5.8   -8.1
I     4.6  -11.5    1.2
I     2.1    6.3   10.6
I    -5.0   -9.4   -6.5
N     3.7  -11.0    4.6
I     9.5   -8.0   -1.2
I    -0.4    2.7   12.2
I    -3.0   -9.0    8.1
C    -9.9    6.9    3.3
I   -12.4    0.0   -2.2
H     0.7   -0.1  -12.6
I     7.5    6.0   -8.1
P   -12.4    2.3    0.1
H     5.2  -10.0    5.6
H    10.4    6.7    2.5
H   -11.5   -0.7   -5.3
I    -2.8    6.3   10.6
I    -5.2  -11.5    1.2
H     4.3  -11.3    3.8
H     1.5  -11.1   -6.0
C     2.7   10.7   -6.3
I    12.3   -3.4    0.3
H     9.0    8.7    2.4
C    -2.9   -0.9   12.4
H   -11.1   -5.5    3.2
I   -12.3   -3.4    0.3
I    -0.1   -5.6  -11.5
H    -0.4  -11.3    6.0
P     4.3   -7.6    9.5
H     2.3  -11.8   -4.7
I     9.3   -5.3    7.1
C     0.3    0.8  -12.9
H    -6.7  -10.2    4.3
H     2.2   -1.9   12.6
H    -2.0    1.0   12.7
P     4.8   -7.8   -9.1
H    -2.1   -1.5   12.7
H     3.8  -10.5    6.6
H    10.3    6.7    4.3
H   -11.3    4.3   -4.8
H   -11.1    2.7    6.1
H    11.4   -1.7   -6.0
H   -11.5    5.4   -2.6
H    11.5    4.2   -4.4
I   -10.1   -8.0   -1.2
H   -10.8    6.4    3.2
P    -5.0   -7.8   -9.1
H    11.5    0.8   -6.0
H     8.8    8.7    4.1
C     2.0   -0.9   12.8
H     3.1  -11.2   -6.0
I    11.7   -1.9    5.4
I    -7.2    2.6  -10.6
C     4.5  -10.8    5.8
I    12.2    3.7    3.0
N     9.5    8.4    3.3
