         400
 sphere cut out from bulk 
P     0.3    0.5    0.0
I    -2.3   -1.3   -0.5
I     2.1   -2.1    0.5
I    -0.3    0.9    3.2
I     1.1    0.5   -3.1
I    -1.5    3.2   -0.5
H     0.7   -2.8   -2.2
I     2.9    2.5    0.5
H    -3.7    0.5   -1.9
H     0.7   -3.9    1.9
H    -3.7   -0.6    2.2
H    -0.9   -3.0   -3.1
H     3.6    0.9   -2.5
H     0.5    3.6    2.5
C     0.2   -3.2   -3.1
H    -2.9    1.4    3.2
H     0.0    3.9   -2.4
H     3.5   -0.4    3.1
H     0.6   -2.7   -4.0
H     0.3   -2.9    4.0
H    -2.7    0.6   -4.1
N    -4.2    1.0   -2.6
H    -0.8   -4.4    2.5
H    -3.9    2.0   -2.5
N     0.2   -4.4    2.6
N    -3.9    1.2    3.2
C    -4.2   -0.2    3.1
H    -4.4    1.7    2.4
H     4.4    1.7    2.4
N     0.2    4.6    2.6
N     4.6    1.0   -2.6
H    -0.8    4.7    2.5
H     5.1    0.5   -1.9
N     0.5    4.4   -3.2
C    -3.8    0.5   -4.0
H     1.5    4.2   -3.2
H     0.7    5.2    1.9
H    -3.8   -0.7    4.0
H     5.1   -0.6    2.2
C     4.6   -0.2    3.1
C     0.6   -3.9    4.0
H     0.0   -5.1   -2.4
P    -4.1   -3.9   -0.0
N     0.5   -4.7   -3.2
H     0.0    4.0   -4.1
H    -4.1   -0.6   -4.0
H     4.8    2.0   -2.5
H    -5.2    0.9   -2.5
H     1.7   -4.0    4.1
N     4.9    1.2    3.2
I    -3.3   -3.9    3.1
H     1.5   -4.8   -3.2
H     0.5   -5.4    2.5
I    -1.5   -5.9   -0.5
P     4.7   -3.9   -0.0
H    -5.3   -0.4    3.1
H     4.7   -0.6   -4.0
H    -4.4    1.7    4.1
H     4.4    1.7    4.1
C     5.0    0.5   -4.0
P     0.5    0.7    6.3
P     0.5    0.4   -6.4
I    -5.9    2.5    0.5
I    -1.8   -1.7   -6.0
H     5.0   -0.7    4.0
H    -4.3    1.1   -4.7
H     0.0   -5.1   -4.1
H     0.1   -4.5    4.7
C     0.6    5.2    4.0
H     4.4    1.1   -4.7
P    -4.1    5.2   -0.0
H     0.1    4.6    4.7
I     6.5   -1.3   -0.5
C     0.2    5.9   -3.1
I    -1.5    2.9   -5.8
H     0.7    6.3   -2.2
I     2.6   -1.7    6.0
H     1.7    5.1    4.1
I     4.1   -4.3   -3.2
H    -0.9    6.0   -3.1
H     5.9    1.4    3.2
I    -3.3    5.2    3.1
P     4.7    5.2   -0.0
I     4.1    4.8   -3.2
I    -6.7   -2.1    0.5
I     2.9    2.8    5.8
I    -1.8   -1.5    6.7
I    -4.7   -4.3   -3.2
I     2.9   -6.6    0.5
I     2.1    6.9    0.5
H     6.0    0.6   -4.1
I    -4.7    4.8   -3.2
I     5.5   -3.9    3.1
H     0.3    6.2    4.0
I     2.6   -1.9   -6.7
H     0.6    6.4   -4.0
I    -1.5    3.2    6.9
I     2.9    2.5   -6.9
I     7.3    3.2   -0.5
I    -2.3    7.8   -0.5
I     5.5    5.2    3.1
I    -7.7    0.5   -3.1
P    -3.9   -3.9    6.4
H    -3.9   -7.1   -2.5
P    -3.9   -4.1   -6.3
P    -8.5    0.5    0.0
P     0.3   -8.6    0.0
I    -1.5   -6.2   -5.8
I    -5.9    2.8    5.8
I    -6.2   -1.7    6.0
I    -0.3   -8.2    3.2
H    -2.9   -7.7    3.2
I    -5.9   -6.6    0.5
H    -8.1   -2.8   -2.2
H    -4.4   -7.4    2.4
P     4.9   -3.9    6.4
H     4.4   -7.4    2.4
H     4.8   -7.1   -2.5
P    -3.9    5.0   -6.3
P     4.9   -4.1   -6.3
H     7.9   -3.0   -3.1
H     0.6   -2.5    8.7
H    -7.3    4.2   -3.2
I     2.9   -6.3    5.8
H    -2.7    0.8    8.6
H     0.1    4.3   -8.0
I     8.5    0.9    3.2
P     9.1    0.5    0.0
P    -3.9    5.2    6.4
H    -7.1   -4.0    4.1
H    -4.3    1.3    8.0
H    -8.1   -3.9    1.9
I    -1.5   -5.9    6.9
I     1.1   -8.6   -3.1
H     4.4    1.3    8.0
H     0.3   -3.1   -8.7
H     3.6   -8.2   -2.5
H     0.1   -4.7   -8.0
I    -6.2   -1.9   -6.7
H    -7.3   -4.8   -3.2
N    -3.9   -7.9    3.2
I     7.0   -1.7   -6.0
I     7.3   -5.9   -0.5
I    -5.9    2.5   -6.9
H     8.0   -4.4    2.5
P     4.9    5.0   -6.3
H    -8.3    3.6    2.5
N    -4.2   -8.1   -2.6
H    -8.1   -2.7   -4.0
H    -3.8   -1.0   -8.7
H    -3.7    8.5    2.2
H    -4.4   -7.4    4.1
H     4.4   -7.4    4.1
H    -3.7   -8.6   -1.9
I    -0.3    0.6   -9.5
C    -3.8    0.7    8.7
P     4.9    5.2    6.4
H     8.0    4.7    2.5
P     0.3    9.6    0.0
H     0.0    4.3    8.6
I    -1.8    7.3   -6.0
H    -4.1   -0.3    8.7
N     4.6   -8.1   -2.6
I    -9.1    0.9    3.2
H    -7.1    5.1    4.1
I    -6.7    6.9    0.5
I     1.1    0.7    9.6
C    -8.6   -3.2   -3.1
C     0.6   -4.2   -8.7
H     1.7   -4.2   -8.6
N     4.9   -7.9    3.2
I     7.3    2.9   -5.8
H    -4.4    1.4   -8.6
H    -8.1    5.2    1.9
H     4.4    1.4   -8.6
I     7.0   -1.5    6.7
H    -2.7   -8.5   -4.1
H    -8.5   -2.9    4.0
I     2.6    7.4    6.0
H     4.7   -0.3    8.7
H     3.5    8.7    3.1
H     0.0   -4.8    8.6
H    -8.7    3.9   -2.4
C    -8.2   -3.9    4.0
I     2.9   -6.6   -6.9
N    -8.3    4.4   -3.2
H    -2.9    1.2   -9.5
H     8.8    3.9   -2.4
H    -5.2   -8.2   -2.5
C     0.2   -2.9    9.6
N    -8.6   -4.4    2.6
H    -0.9   -2.8    9.6
H     1.7    4.8   -8.6
H    -3.8    8.4    4.0
C     9.0   -3.2   -3.1
C     0.6    4.9   -8.7
N    -8.3   -4.7   -3.2
H     5.0   -1.0   -8.7
C     5.0    0.7    8.7
N    -8.6    4.6    2.6
I     1.1    9.6   -3.1
H     9.5   -2.8   -2.2
H     5.1    8.5    2.2
I     6.5    7.8   -0.5
I     2.6    7.2   -6.7
H     5.1   -8.6   -1.9
H     5.9   -7.7    3.2
C    -3.8   -8.6   -4.0
H     3.5   -0.6   -9.6
H     9.2    3.6    2.5
H    -4.3   -8.0   -4.7
H    -8.3   -5.4    2.5
H    -4.1    8.5   -4.0
C    -4.2    8.9    3.1
I    -1.8    7.6    6.7
H     9.0   -2.9    4.0
N    -3.9    1.0   -9.5
H     4.4   -8.0   -4.7
I     9.9    0.5   -3.1
N     9.0   -4.4    2.6
H     9.5   -3.9    1.9
H    -8.7   -5.1   -2.4
H    -3.7    9.6   -1.9
I    -5.9   -6.3    5.8
H     7.9    6.0   -3.1
C    -4.2   -0.5   -9.6
N     9.0    4.6    2.6
P    -8.3    0.7    6.3
C     4.6    8.9    3.1
N     0.5   -4.4    9.5
H    -8.8    4.0   -4.1
P    -8.3    0.4   -6.4
I    -0.3   10.0    3.2
H     8.8   -5.1   -2.4
C    -8.2    5.2    4.0
H     8.8    4.0   -4.1
H     4.7    8.5   -4.0
I     7.3    3.2    6.9
H    -8.1    6.3   -2.2
P     0.5   -8.4    6.3
H     0.3    6.0   -8.7
H     6.0    0.8    8.6
H     1.5    4.5    9.5
H     5.0    8.4    4.0
H     3.5   -9.5    3.1
N     0.5    4.7    9.5
H    -9.7   -3.0   -3.1
H     9.4   -2.7   -4.0
C     4.6   -0.5   -9.6
H     1.5   -4.6    9.5
H    -3.7   -9.7    2.2
H    -5.3    8.7    3.1
I    -2.3  -10.4   -0.5
C    -4.2   -9.3    3.1
N     4.9    1.0   -9.5
C     5.0   -8.6   -4.0
H     0.5    3.4  -10.2
N     9.3    4.4   -3.2
P     0.5   -8.7   -6.4
H     0.7   -2.6   10.5
I   -10.3    3.2   -0.5
H    -2.7    9.6   -4.1
H    -9.6   -4.4    2.5
N     9.3   -4.7   -3.2
C     4.6   -9.3    3.1
C    -8.6    5.9   -3.1
H     3.6    1.2   10.2
C     9.4   -3.9    4.0
H    -8.7   -4.5    4.7
H    -8.8   -5.1   -4.1
H     0.6    6.6    8.7
H     3.6   10.0   -2.5
H    -8.7    4.6    4.7
H     8.8   -5.1   -4.1
H    -5.3   -0.6   -9.6
H     9.5    5.2    1.9
I    -3.3   -4.2   -9.6
H     8.8   -4.5    4.7
N    -4.2    1.3   10.1
H     5.1    9.6   -1.9
H    -9.6    4.7    2.5
N     0.2    4.4  -10.1
H     9.2   -5.4    2.5
H     8.8    4.6    4.7
C    -3.8    9.6   -4.0
I    10.9   -2.1    0.5
H    -8.1    6.4   -4.0
N     0.2   -4.7  -10.1
H    -3.9    2.3   10.2
H     0.0    4.2   10.3
H    -3.7   -0.9  -10.5
I     4.1   -4.1    9.5
N     4.6    1.3   10.1
H     5.1   -9.7    2.2
H    -0.8    4.5  -10.2
I    -5.9   -6.6   -6.9
I   -11.1   -1.3   -0.5
I     7.3   -6.2   -5.8
H     5.9    1.2   -9.5
C     9.0    5.9   -3.1
H     6.0   -8.5   -4.1
H    -3.8   -9.8    4.0
H    -0.8   -4.6  -10.2
H    -4.1   -9.7   -4.0
N    -4.2   10.1   -2.6
P     9.3    0.7    6.3
P     9.3    0.4   -6.4
H    -4.4    1.5  -10.3
H    -5.3   -9.5    3.1
I    -3.3    4.9   -9.6
H    -8.5    6.2    4.0
H     4.4    1.5  -10.3
I    -6.2    7.4    6.0
C     0.2    6.1    9.6
H    -2.9   10.5    3.2
I    -4.7   -4.1    9.5
N     4.6   10.1   -2.6
H     0.0   -4.9   10.3
C     9.4    5.2    4.0
I     2.1  -11.2    0.5
H     4.7   -9.7   -4.0
P     0.5    9.5   -6.4
H    -3.7    0.7   10.8
C     5.0    9.6   -4.0
H     4.8    2.3   10.2
H    -0.9    6.3    9.6
N    -3.9   10.3    3.2
I     4.1    5.0    9.5
H    -5.2    1.2   10.2
H    -5.2   10.0   -2.5
H     9.5    6.3   -2.2
H    10.3    4.2   -3.2
I    -6.2    7.2   -6.7
H     0.7   -4.2  -10.8
I     7.3   -5.9    6.9
P     0.5    9.8    6.3
H     0.5   -5.7  -10.2
H     5.1   -0.9  -10.5
H     9.0    6.2    4.0
H     5.0   -9.8    4.0
I    -4.7    5.0    9.5
I     7.0    7.3   -6.0
I     5.5   -4.2   -9.6
H    10.3   -4.8   -3.2
H    -9.7    6.0   -3.1
N     4.9   10.3    3.2
H    -4.4   10.8    2.4
I   -10.3   -5.9   -0.5
H    10.4   -4.0    4.1
H     4.4   10.8    2.4
H     0.7    4.9  -10.8
I     2.9   11.6    0.5
I    11.7    2.5    0.5
H    -4.3   -7.8    8.0
I    -7.7   -8.6   -3.1
H    -7.1   -4.2   -8.6
H     5.1    0.7   10.8
H     4.4   -7.8    8.0
H    -4.3   10.1   -4.7
H     4.4   10.1   -4.7
H    -3.9   11.1   -2.5
H     9.4    6.4   -4.0
P    -8.5   -8.6    0.0
H     6.0    9.6   -4.1
I     5.5    4.9   -9.6
H     0.7  -11.9   -2.2
H    -8.1   -2.5    8.7
I   -10.3    2.9   -5.8
H    -7.1    4.8   -8.6
I     8.5   -8.2    3.2
H   -11.7    1.4    3.2
I     6.5  -10.4   -0.5
H   -11.5    0.6   -4.1
H    -2.7   -8.3    8.6
I   -10.6   -1.7   -6.0
H    -4.4   10.7    4.1
H     4.4   10.7    4.1
H    10.4    5.1    4.1
I     7.0    7.6    6.7
I    -7.7    0.7    9.6
H     0.7    6.5   10.5
H    -4.4   -7.7   -8.6
I    -1.5   12.3   -0.5
H     4.4   -7.7   -8.6
H     4.8   11.1   -2.5
I    -2.3   -1.0   12.2
H     5.9   10.5    3.2
H    -3.8    8.1   -8.7
H     0.6  -11.8   -4.0
P     9.1   -8.6    0.0
I    -1.8  -10.8   -6.0
H    -0.9  -12.1   -3.1
H    -8.5   -3.1   -8.7
I     2.1   -2.4  -12.2
I     2.6  -10.8    6.0
H     0.3  -11.9    4.0
H    -8.7    4.3   -8.0
I   -10.6   -1.5    6.7
I    -9.1   -8.2    3.2
H    12.4    0.9   -2.5
