         400
 sphere cut out from bulk 
P    -2.1   -0.3   -0.7
I     0.5   -2.2   -0.6
I    -0.2    2.3   -0.7
H     1.9    0.7    1.4
H     1.6   -1.0    2.1
C     2.4   -0.2    1.9
I    -2.1   -0.3    2.5
H     1.7   -1.0   -2.6
H     3.2   -0.6    1.3
H    -1.0   -3.6    1.7
H     0.8   -0.7   -4.0
H    -1.2    3.8    1.1
N     1.8   -1.0   -3.6
I    -1.8   -0.3   -3.9
N     2.9    0.2    3.2
H     2.1    0.6    3.8
H     2.5    1.0   -3.7
H    -1.9    2.9   -3.1
I     4.3    1.6   -0.9
H    -2.5   -4.0    1.1
H     2.0   -1.9   -4.0
H     3.6    0.9    3.1
P     2.5    4.2   -0.7
C     2.8    0.0   -4.1
N    -1.7   -4.4    1.6
I    -4.0   -2.9   -0.7
I    -4.6    1.6   -0.9
H     3.3   -0.6    3.8
N    -1.6    4.6    1.6
H     3.8   -0.3   -3.7
H    -2.8    3.5    2.9
H    -1.2    3.8    3.6
I     2.5    4.1    2.5
P     2.4   -4.8   -0.7
H    -1.3   -5.2    1.1
C    -2.1    4.2    3.0
H    -2.4    5.0    1.1
H    -0.9    5.4    1.7
C    -2.4    3.7   -3.6
I     5.0   -2.9   -0.7
H    -2.6   -3.9    3.5
H     2.8    0.1   -5.2
H    -0.9   -4.2   -4.1
H    -5.8   -0.6    1.3
H    -2.8    4.4   -2.9
I     0.7    1.5    5.8
P    -2.0   -0.3    5.7
I     2.4   -4.9    2.5
C    -2.2   -4.8    3.0
H    -2.9   -4.6   -2.9
H    -3.3    3.2   -4.1
H    -5.3    0.9    3.1
H    -5.2   -0.3   -3.7
I     2.4    4.4   -3.9
H    -0.7    4.8   -4.1
H    -1.3   -5.2    3.6
I     2.2   -4.6   -3.9
I    -0.2   -2.9    5.8
N    -1.6    4.4   -4.6
H    -1.2    3.7   -5.3
H    -2.5    5.1    3.5
I    -0.3   -6.7   -0.7
N    -1.7   -4.6   -4.6
H    -5.6   -0.6    3.8
H    -2.2   -3.9   -5.1
I     0.6    6.8   -0.6
C    -6.6   -0.2    1.9
N    -6.1    0.2    3.2
H    -3.0   -5.5    2.9
C    -2.5   -5.3   -3.6
P     6.9   -0.3   -0.7
H    -2.0   -6.1   -3.1
H    -7.0    0.7    1.4
I    -3.9    2.3    5.7
I    -3.9    6.1   -0.7
I     6.8   -0.3    2.5
I     4.2   -2.1    5.6
C    -6.1    0.0   -4.1
P    -1.9   -0.2   -7.2
H    -6.4    1.0   -3.7
P     2.5    4.3    5.7
I     0.6   -2.1   -7.2
H    -2.1    5.1   -5.1
H    -1.3   -5.3   -5.3
H     6.1    3.5    2.9
I    -0.1    2.4   -7.2
I    -4.7   -2.1    5.6
H     6.5   -4.0    1.1
H    -7.4   -1.0    2.1
P    -6.4    4.2   -0.7
H     5.7    3.2   -4.1
H    -7.2   -1.0   -2.6
P     2.4   -4.7    5.7
H    -6.8    0.6    3.8
H    -3.4   -5.8   -4.1
I     5.1    2.3    5.7
I     5.1    6.1   -0.7
H    -6.1    0.1   -5.2
I    -6.5    4.1    2.5
H     2.2    0.5    7.7
N    -7.2   -1.0   -3.6
H     6.1    4.4   -2.9
H     6.0   -4.6   -2.9
P    -6.6   -4.8   -0.7
I     7.2   -0.3   -3.9
H     3.1   -0.9    7.6
H     6.4   -3.9    3.5
H    -7.0   -1.9   -4.0
H     7.1    2.9   -3.1
C     6.5    3.7   -3.6
H     6.6    5.0    1.1
I    -0.1    6.1    5.8
H     2.1    7.1   -4.0
H     1.7    8.0    2.1
I    -3.7   -2.9   -7.1
I     4.5    1.7   -7.1
I    -4.5    1.7   -7.1
I     4.2   -7.4   -0.9
H     1.8    8.0   -2.6
I    -6.6   -4.9    2.5
N     7.2   -4.4    1.6
C     6.9    4.2    3.0
H     6.0   -5.5    2.9
H     1.8   -8.3    1.4
N     2.8   -0.2    8.3
H     7.7    3.8    1.1
P     2.7    4.3   -7.2
I    -8.5   -2.2   -0.6
C     6.8   -4.8    3.0
I    -4.7   -7.4   -0.9
N     7.4    4.6    1.6
H     1.0   -1.3    8.7
I    -6.6    4.4   -3.9
H     8.0   -3.6    1.7
P     2.5   -4.7   -7.2
P     7.0   -0.3    5.7
H     6.5    5.1    3.5
P    -2.0    8.7   -0.7
I    -6.7   -4.6   -3.9
H     5.6   -5.8   -4.1
N     1.9    8.0   -3.6
H    -1.7    4.5    7.7
H    -8.1   -0.7   -4.0
C     6.4   -5.3   -3.6
H    -1.8   -4.5    7.7
H     3.3    8.4    1.3
I     8.8    2.3   -0.7
H     2.4   -8.0   -3.7
I    -2.3   -0.1    8.9
I     5.2   -2.9   -7.1
H     0.9    8.3   -4.0
H     7.6   -5.2    1.1
I    -2.0    8.7    2.5
C     2.5    8.8    1.9
H     6.7   -3.9   -5.1
H     7.7    3.8    3.6
H     3.5   -8.1    3.1
H     3.6    0.3    8.7
I    -9.1    2.3   -0.7
H     2.0   -8.4    3.8
I     0.6   -7.5    5.8
C     1.9   -0.9    9.2
H    -2.5    2.5    8.8
P    -2.2   -9.3   -0.7
H    -5.8   -0.9    7.6
H     2.1    0.7   -9.3
P    -6.5    4.3    5.7
I    -4.0   -6.7    5.7
C     2.3   -9.2    1.9
I    -1.7    8.7   -3.9
I     9.4   -2.2   -0.6
I    -0.2   -6.6   -7.2
N     7.4    4.4   -4.6
N     7.3   -4.6   -4.6
H     7.0   -6.1   -3.1
N     2.8   -8.8    3.2
H     3.4    8.4    3.8
I    -2.2   -9.3    2.5
H     8.1    5.4    1.7
H     7.6   -5.2    3.6
H     3.3   -0.6   -9.3
P    -6.6   -4.7    5.7
I     4.3    6.9    5.6
H    -1.0    4.0   -9.1
H     6.9    5.1   -5.1
I     0.7    6.9   -7.2
H     2.1    9.7    1.4
C    -1.7    4.5    8.8
H     8.1   -4.2   -4.1
I    -3.6    6.1   -7.1
I    -4.6    6.9    5.6
P     7.0   -0.2   -7.2
C    -1.8   -4.5    8.8
H    -2.3   -3.8   -9.0
H    -2.1   -3.6    9.2
I     5.0   -6.7    5.7
H    -0.7    4.2    9.1
H     1.5   -0.1   10.0
H     7.8    3.7   -5.3
H     1.7   -0.9  -10.0
C     2.5   -0.2   -9.8
I     2.7    4.2    8.9
H    -5.6    8.4    1.3
H     2.5   -1.6    9.7
I    -8.3    1.5    5.8
N    -2.7    3.5    9.2
H     3.1   -9.6    1.3
N     3.0    9.2    3.2
C     2.7   -9.0   -4.1
H    -5.4   -8.1    3.1
H     3.9    8.7   -3.7
H    -5.4    0.3    8.7
H    -6.7    0.5    7.7
I    -1.9   -9.3   -3.9
H    -3.7    3.7    8.9
H     1.5  -10.0    2.1
N    -6.2   -0.2    8.3
C     2.9    9.0   -4.1
H    -0.8   -3.5   -9.7
H     8.2    4.8   -4.1
H    -0.8   -4.8    9.1
H    -1.1   -5.0   -9.1
I     2.6   -4.8    8.9
P    -6.3    4.3   -7.2
H     1.6  -10.1   -2.6
H     0.7   -9.7   -4.0
I    -1.9   -0.4  -10.3
P    -1.9    8.7    5.7
H     2.2    9.6    3.8
H     9.8   -0.7   -4.0
H    -2.2    5.2   -9.0
N    -1.5   -4.2   -9.6
H    -6.8    7.1   -4.0
H     3.7   -9.3   -3.7
H     2.7   -8.9   -5.2
H    -9.9   -3.6    1.7
H     7.7   -5.3   -5.3
P    -6.4   -4.7   -7.2
H    -5.1    8.7   -3.7
I     5.3    6.1   -7.1
H    -5.5    8.4    3.8
N     1.7  -10.0   -3.6
I    -8.4    6.8   -0.6
H    10.5   -1.0    2.1
H     3.2   -9.6    3.8
N    -1.4    4.8   -9.6
H     2.9    9.1   -5.2
H    -2.0    5.4    9.2
H    -5.6   -0.6   -9.3
I     8.8   -2.9    5.8
H   -10.2    3.8    1.1
H    -6.5   -8.0   -3.7
H     5.3    3.7    8.9
I     8.7   -6.7   -0.7
H    -3.8   -5.3    8.9
H     2.7   10.0   -3.7
H    -7.1    8.0   -2.6
H    10.9    0.7    1.4
H    -7.2    8.0    2.1
H    10.7   -1.0   -2.6
P   -11.0   -0.3   -0.7
H    -7.1   -8.3    1.4
H     3.7    9.9    3.1
I     4.3   -7.3   -7.1
C    -6.5    8.8    1.9
P    -2.1   -9.3    5.7
N    -2.8   -5.5    9.2
I     6.7   -0.1    8.9
H    -2.8    3.4   10.2
H    -0.7    5.5   -9.7
I    -4.6   -7.3   -7.1
I    -9.1   -2.9    5.8
I    -8.3   -2.1   -7.2
H     6.4    2.5    8.8
P     7.0    8.7   -0.7
N    -6.2   -8.8    3.2
I     0.4  -11.2   -0.6
H    -2.6   -6.5    8.8
N    -7.1    8.0   -3.6
H    -9.8    5.4    1.7
H    -5.3   -9.3   -3.7
I     9.6    1.5    5.8
I   -11.1   -0.3    2.5
I    -0.0   11.3   -0.7
H    -5.9   -9.6    1.3
N    10.7   -1.0   -3.6
I    -9.2   -6.7   -0.7
H     7.1   -4.5    7.7
I   -10.7   -0.3   -3.9
N    -5.9    9.2    3.2
H    -9.8   -4.2   -4.1
I     6.9    8.7    2.5
H   -10.2    3.8    3.6
C    11.3   -0.2    1.9
H     7.3    4.5    7.7
I     2.5    4.3  -10.3
P     6.8   -9.3   -0.7
P    -1.8    8.8   -7.2
H     5.2   -5.3    8.9
H    -6.9   -8.4    3.8
I     4.4   10.6   -0.9
H   -10.3   -5.2    1.1
C    -6.7   -9.2    1.9
I    -4.5   10.6   -0.9
H     3.2    8.1    7.6
N     2.9    0.2  -11.2
H    -9.7    4.8   -4.1
C    -6.0    9.0   -4.1
H   -10.8    2.9   -3.1
H    -6.9    0.7   -9.3
I     2.4   -4.7  -10.3
N   -10.7   -4.4    1.6
N     6.2    3.5    9.2
N   -10.5    4.6    1.6
H    -5.2    9.9    3.1
H     2.1   -8.5    7.7
I    -6.3    4.2    8.9
H     1.2    7.7    8.7
C    -6.2   -9.0   -4.1
C    -7.1   -0.9    9.2
H    -2.7    3.6  -10.8
I     8.9    2.4   -7.2
I     6.7   -9.3    2.5
I     9.5    6.8   -0.6
H    11.1    0.6    3.8
H     3.7    0.9  -11.1
H     1.9  -10.9   -4.0
C    -6.5   -0.2   -9.8
H    -5.7   -9.6    3.8
I    -9.0    2.4   -7.2
H    10.9   -1.9   -4.0
H    -6.5   -1.6    9.7
H    -7.9   -1.3    8.7
P    -2.1   -9.2   -7.2
H     6.7   -3.8   -9.0
C    -2.0    4.3  -10.9
H    -6.9    9.7    1.4
I    -6.4   -4.8    8.9
H     2.2    0.6  -11.8
H     6.9   -3.6    9.2
H   -10.1    3.7   -5.3
H    -2.9   -5.6   10.2
I     0.8   10.5    5.8
I     7.3    8.7   -3.9
H   -10.3   -5.2    3.6
H    -6.0    9.1   -5.2
C    -2.1   -4.7  -10.9
H    -6.2   -8.9   -5.2
H    11.5    1.0   -3.7
H   -11.4   -4.0    1.1
I     9.6   -2.1   -7.2
C     7.1   -4.5    8.8
C   -11.0    4.2    3.0
H    -8.0    8.3   -4.0
H     3.3   -0.6  -11.7
P    11.5    4.2   -0.7
H    -1.1    3.9  -11.5
C     7.2    4.5    8.8
I     8.9    6.1    5.8
H    12.1   -0.6    1.3
I     0.5    1.5   12.1
I    -0.3   -2.9   11.9
N   -10.5    4.4   -4.6
N    11.8    0.2    3.2
H    -2.5   -3.8  -11.4
P   -10.9   -0.3    5.7
H    -6.7    9.6    3.8
P    -2.1   -0.4   12.1
I     7.1   -9.3   -3.9
I    -9.0    6.1    5.8
N     6.1   -5.5    9.2
P    11.3   -4.8   -0.7
H    -7.3   -0.9  -10.0
H    -5.3    0.9  -11.1
H    -6.3   10.0   -3.7
H    -2.8   -5.4  -10.8
H     6.8    5.2   -9.0
I    11.4    4.1    2.5
H     6.1    3.4   10.2
N     2.9    8.8    8.3
H    -7.4   -0.1   10.0
H    -1.7   11.9   -3.1
H   -11.3    5.0    1.1
C    11.8    0.0   -4.1
N   -10.6   -4.6   -4.6
C     2.0    8.1    9.2
C   -11.1   -4.8    3.0
H     2.6    7.4    9.7
H     2.3    9.5    7.7
H    -5.7    8.1    7.6
C   -11.4    3.7   -3.6
I     7.0   -0.4  -10.3
P     7.1    8.7    5.7
I    -4.1  -11.9   -0.7
I    11.3   -4.9    2.5
I    -8.4   -7.5    5.8
N     2.6   -9.2    8.3
H    -7.5  -10.0    2.1
H     6.3   -6.5    8.8
H   -11.8    3.5    2.9
