         400
 sphere cut out from bulk 
H    -0.6    1.0    0.6
H    -0.6    0.7   -1.2
C    -0.7    1.5   -0.4
I     1.3   -1.5    0.8
H    -1.8    1.8   -0.4
H     1.2    2.3   -0.5
N     0.2    2.6   -0.6
H     0.0    3.3    0.1
H     0.0    3.0   -1.5
H    -0.5   -1.3    3.2
P    -0.5   -3.6   -0.6
I    -0.6   -1.8   -3.3
I    -3.1   -2.2    0.5
I    -2.4    1.4    3.1
H     2.2   -1.6   -3.1
I     3.8    1.9   -0.6
P     3.9   -0.0    2.0
C    -0.9   -2.0    4.0
I     2.1    2.1    3.6
H     4.2   -1.3   -1.8
H    -0.7   -3.0    3.8
H    -2.0   -1.8    4.2
I     1.2    2.3   -4.3
N     3.1   -2.0   -3.4
H    -4.7   -1.3   -1.8
H    -3.7   -1.8   -3.2
H     3.1   -3.0   -3.1
C     4.3   -1.3   -2.9
H     4.2   -0.2   -3.2
P    -5.0   -0.0    2.0
I    -5.1    1.9   -0.6
H     0.9   -1.8    5.1
N    -0.2   -1.6    5.3
H    -0.3   -0.6    5.5
C    -4.6   -1.3   -2.9
H    -4.6   -0.2   -3.2
I    -0.2    5.4    1.9
H     3.1   -1.9   -4.5
I     2.1   -5.1   -1.8
P    -0.6    3.6    4.6
P    -0.6    0.2   -5.9
I    -0.3   -5.6    1.9
I    -2.2    5.2   -2.2
H     4.0    4.5    1.2
I    -3.2    1.7   -5.0
I     3.7   -2.0    4.5
H     3.8   -4.8    0.7
I     5.8   -2.2    0.5
H     3.4   -4.2    3.0
H     5.2   -1.8   -3.2
P     4.0    3.7   -3.3
H     2.3   -5.4    2.5
H    -0.3   -4.1   -4.9
H    -0.5   -2.2    6.1
H     2.3    5.6    2.5
I     2.2    5.9   -1.8
I    -2.2   -5.8   -2.2
H    -4.8    4.5    1.2
H    -3.7   -5.3    1.8
N     3.3   -5.2    2.7
H     3.1    1.5    6.0
P    -4.9    3.7   -3.3
H    -0.4    5.4   -4.4
H    -3.7    5.7    1.8
N    -5.8   -2.0   -3.4
H    -5.1   -4.8    0.7
C     4.1   -5.5    1.5
C     4.2    5.5    1.5
H    -0.5   -5.6   -4.4
I    -5.2   -2.0    4.5
N     3.3    5.8    2.7
H     3.7    5.2    3.5
H    -5.8   -3.0   -3.1
N    -0.2   -5.1   -5.2
I     2.1   -1.4   -6.8
H     3.9    6.2    0.7
I     6.5    1.4    3.1
H     7.1    1.8   -0.4
I    -0.5    1.6    7.2
C    -4.7    5.5    1.5
C    -4.7   -5.5    1.5
P    -0.5    7.4   -0.6
H     0.9   -5.2   -5.3
H    -6.7   -1.6   -3.1
H    -5.5   -4.2    3.0
H    -5.8   -1.9   -4.5
H     5.2   -5.3    1.8
H    -0.0   -7.7    0.1
I     5.6    1.7   -5.0
H     3.6   -5.8    3.5
I    -7.5   -1.5    0.8
H     4.0   -6.5    1.2
N     3.1    1.5    7.0
H     2.2    1.9    7.3
N    -0.1    5.9   -5.2
H     0.9    5.8   -5.3
H     5.2    5.7    1.8
H     3.1    0.5    7.3
I    -6.8    2.1    3.6
H    -5.0    6.2    0.7
I    -2.4   -2.0   -7.4
H     3.7    1.7   -7.0
H    -7.7    2.3   -0.5
N    -5.6   -5.2    2.7
H    -0.7    4.6   -6.7
H     0.0   -8.0   -1.5
H    -5.2    5.2    3.5
I    -3.2    5.1    5.5
H     3.5    6.8    3.0
I     1.2   -5.3    6.2
H    -4.9   -6.5    1.2
C     8.1    1.5   -0.4
H     6.9   -1.8    4.2
H    -3.7    1.7    7.2
H     8.3    1.0    0.6
H    -2.0   -5.2   -6.3
H     8.3    0.7   -1.2
N     0.1   -8.4   -0.6
N    -5.5    5.8    2.7
H    -5.8    1.5    6.0
C    -0.9   -5.4   -6.5
H    -0.3    6.9   -4.9
I     1.2    5.7    6.2
H     2.3    2.2   -7.9
C    -0.9    5.6   -6.5
H    -5.3   -5.8    3.5
I    -6.8   -5.1   -1.8
H    -0.6   -4.7   -7.3
I    -3.3   -5.9    5.5
H    -1.9    5.8   -6.3
I     6.7    5.2   -2.2
P    -0.7   -7.4    4.6
N     3.3    2.3   -7.7
I    -0.3    1.9   -8.6
H     1.1   -8.7   -0.5
I     3.7   -5.4   -5.9
H     3.5    3.3   -7.4
I    -2.2   -2.4    8.2
H    -0.7    8.0    3.8
H    -5.2    1.7   -7.0
P     4.0   -7.3   -3.3
H    -6.6   -5.4    2.5
I     3.7    5.6   -5.9
H    -6.5    5.6    2.5
C     4.3    2.2    7.6
H     4.2    3.2    7.3
H     8.3   -1.3    3.2
I     2.1   -1.6    8.6
H     5.2    1.7    7.2
I    -7.7    2.3   -4.3
P     4.0   -3.8    7.2
N    -8.7    2.6   -0.6
P     8.3   -3.6   -0.6
I     6.6   -5.8   -2.2
I     8.3   -1.8   -3.3
C    -4.6    2.2    7.6
C     8.0   -2.0    4.0
H     3.1    8.0   -3.1
I    -6.7    5.9   -1.8
H    -5.4    6.8    3.0
H    -4.6    3.2    7.3
N    -5.8    1.5    7.0
H    -0.7   -6.4   -6.7
I    -3.0    8.8    0.5
P    -4.9   -7.3   -3.3
H    -1.8   -9.2   -0.4
H    -5.8    0.5    7.3
I     5.7    5.1    5.5
H    -8.8    3.3    0.1
H    -8.8    3.0   -1.5
N     9.1    2.6   -0.6
H     8.2   -3.0    3.8
H    -9.4    1.0    0.6
H     8.9    3.3    0.1
P    -4.9   -3.8    7.2
H    -9.4    0.7   -1.2
H     8.9    3.0   -1.5
C    -0.8   -9.6   -0.4
I    -5.2   -5.4   -5.9
H    -0.5    6.3   -7.3
I    -5.2    5.6   -5.9
I     1.4    9.5    0.8
H    -8.0   -1.8    5.1
H    -3.7    2.2   -8.7
I    -6.8   -1.4   -6.8
C    -9.6    1.5   -0.4
I     1.2   -8.7   -4.3
H    -5.4    3.3   -7.4
I    -0.5    9.2   -3.3
N    -5.5    2.3   -7.7
I     5.6   -5.9    5.5
P    -0.5   -0.2    9.8
I     2.1   -8.9    3.6
I     3.8   -9.1   -0.6
H     4.2    2.1    8.7
C    -0.9    9.0    4.0
P     3.9   -3.5   -8.5
H    -0.6  -10.0    0.6
H     0.0   -4.6    8.9
H    -9.4   -1.3    3.2
I     6.5   -2.0   -7.4
H    -4.7    2.1    8.7
C     4.2    2.1   -8.9
H    -6.7    1.9    7.3
P    -9.4   -3.6   -0.6
P     8.3    3.6    4.6
H     4.0    1.0   -9.2
N     3.1    9.0   -3.4
P     8.3    0.2   -5.9
I    -9.4   -1.8   -3.3
H    -0.6   -2.4   -9.9
H     2.2    9.4   -3.1
H    -0.6    4.1    9.3
H     8.6   -0.6    5.5
H    -0.5    9.7    3.2
H    -1.9    9.2    4.2
N     8.7   -1.6    5.3
C    -4.7    2.1   -8.9
I     8.6    5.4    1.9
H    10.1    2.3   -0.5
I    -2.4   -9.6    3.1
H     0.0   -0.1  -10.3
I    10.2   -1.5    0.8
H    -5.8    8.0   -3.1
H    -0.6  -10.3   -1.2
H     5.2    2.2   -8.7
P    -5.0   -3.5   -8.5
I    -5.1   -9.1   -0.6
H    -3.7    9.2   -3.2
I     8.6   -5.6    1.9
H    -4.9    1.0   -9.2
H    -6.5    2.2   -7.9
N    -9.0   -1.6    5.3
H     3.1    9.1   -4.5
H     8.4   -2.2    6.1
I     5.8    8.8    0.5
H     0.9    9.2    5.1
H     8.6   -4.1   -4.9
H    -0.4    8.8    6.1
H     6.9   -5.2   -6.3
H     4.2    9.7   -1.8
H    -9.6   -3.0    3.8
I     3.7    9.0    4.5
H    -9.2   -0.6    5.5
I    -9.1    5.4    1.9
C    -9.8   -2.0    4.0
N    -0.1    9.4    5.3
H   -10.6    1.8   -0.4
H     3.9    2.7   -9.7
I     6.6   -2.4    8.2
H    -4.6    9.7   -1.8
H     8.4    5.4   -4.4
I     1.3   -4.9   -9.7
I    -9.2   -5.6    1.9
P     4.0    7.2    7.2
H    -8.0   -5.2   -5.3
H     7.0    5.8   -6.3
H     0.1    6.4    8.9
C     4.3    9.7   -2.9
H     8.4   -5.6   -4.4
C    -0.8   -2.0  -10.8
N     0.2   -5.0    9.9
I    -6.8   -1.6    8.6
I    -3.3   -9.3   -5.0
H     5.2    9.2   -3.2
N     0.2   -0.8  -11.1
I     8.3    1.6    7.2
C    -4.6    9.7   -2.9
H     1.2   -1.2  -11.0
P    -9.5    3.6    4.6
H     9.7   -1.8    5.1
P    -9.5    0.2   -5.9
H    -1.8   -1.6  -10.9
I    10.1    2.3   -4.3
P     8.4    7.4   -0.6
H    -8.0    5.8   -5.3
H    -9.2   -4.1   -4.9
H     3.4   -7.7   -7.4
I    -7.7   -5.3    6.2
N    -5.7    9.0   -3.4
C    -0.7    4.9   10.1
P    -4.9    7.2    7.2
H     1.1   -5.3    9.9
H    -5.0    2.7   -9.7
I    -5.2    9.0    4.5
N     8.7   -5.1   -5.2
H    -9.4   -2.2    6.1
H    -0.0   -4.2   10.6
I    -7.7    5.7    6.2
H     4.2   -7.8    7.3
H    -1.8    5.3   10.0
I     1.4    6.1   -9.7
I    -3.1    1.2   11.0
I     1.3    1.9   11.3
H     1.2    5.7    9.9
H     8.2    4.6   -6.7
N     0.2    6.0    9.9
H    -0.6   -6.9    9.3
H     7.1   -9.2   -0.4
N    -9.0   -5.1   -5.2
C     8.0   -5.4   -6.5
H    11.1   -1.6   -3.1
H    -9.3    5.4   -4.4
H    -5.8    9.1   -4.5
H     3.0   -9.5    6.0
H    -4.7   -7.8    7.3
H    -7.7   -8.7   -0.5
I    -3.0    5.4   -9.9
H    -1.8   -5.7   10.0
C     8.0    5.6   -6.5
H     8.9   -7.7    0.1
H    -8.9   -7.7    0.1
I   -11.2    1.4    3.1
I    11.0    2.1    3.6
H    -0.3   10.4    5.5
H   -10.8   -1.8    4.2
H    -0.5   11.7   -1.2
P    -0.5    3.9  -11.1
H    -9.4   -5.6   -4.4
N     8.8    5.9   -5.2
I    -0.6   -9.4    7.2
I    -6.8   -8.9    3.6
C    -0.8   -6.1   10.1
I    -3.1   -5.6   -9.9
I     3.8   -1.5  -11.1
I     3.8    5.4    9.8
P     3.9  -11.0    2.0
P     3.9   11.0    2.0
I    -2.3    9.0   -7.4
H     3.8   -1.4   11.2
H     2.2   -9.1    7.3
P    -9.4    7.4   -0.6
H    -0.6   -2.7  -11.6
H    -0.6    4.5   11.1
I     3.8   -5.6    9.8
I     6.5   -9.6    3.1
I    -9.4    1.6    7.2
H    -6.6    9.4   -3.1
I     5.6   -9.3   -5.0
N    -9.0    5.9   -5.2
P     8.2   -7.4    4.6
I     2.1    9.6   -6.8
H    -5.5   -7.7   -7.4
H     0.0   -0.4  -12.0
H     4.3   10.8   -3.2
P     3.9    7.6   -8.5
H     8.3   -4.7   -7.3
H    -8.9   -8.0   -1.5
H     8.9   -8.0   -1.5
H    -0.5   12.0    0.6
H     8.2    8.0    3.8
N     3.3   -8.7   -7.7
H     2.3   -8.8   -7.9
I    -2.2    8.6    8.2
H     8.6    6.9   -4.9
H    -4.6   10.8   -3.2
I    -7.5    9.5    0.8
H     3.6   -9.3   -7.0
N    -8.7   -8.4   -0.6
I   -12.0   -2.2    0.5
P    -4.9   11.0    2.0
N     3.0   -9.6    7.0
I    11.0   -5.1   -1.8
P    -5.0  -11.0    2.0
H     9.7   -5.2   -5.3
H     7.0    9.2    4.2
I    -5.0    5.4    9.8
I    -5.1   -1.5  -11.1
I     8.6    1.9   -8.6
H    -5.1   -1.4   11.2
N     9.0   -8.4   -0.6
P    -0.7  -10.9   -5.9
H     8.2   -6.4   -6.7
P    -4.9    7.6   -8.5
H    -3.7   -9.3    7.2
I    -7.7   -8.7   -4.3
C     4.2   -8.8    7.6
H     4.2  -11.2   -3.2
I   -11.1    5.2   -2.2
I    -5.1   -5.6    9.8
C    -0.7   12.5   -0.4
I     5.8    1.2   11.0
H    -9.2    6.9   -4.9
I    -0.3   -9.1   -8.6
H    -9.5    4.6   -6.7
C     8.1   -9.6   -0.4
I    -0.3   -2.2   12.3
C    -4.7   -8.8    7.6
H     9.8    5.8   -5.3
H     0.0    6.8   10.6
I     1.3  -12.5    0.8
H    -4.7  -11.2   -3.2
N    12.0   -2.0   -3.4
P    -0.6   11.2   -5.9
H    -5.8   -9.5    6.0
H    11.2   -5.4    2.5
I    -9.1    1.9   -8.6
I    11.1    5.9   -1.8
H    11.9   -3.0   -3.1
I     5.8    5.4   -9.9
