         400
 sphere cut out from bulk 
I     0.6   -0.8   -1.3
P    -1.0    1.4    0.5
I    -1.3   -1.1    2.4
P    -0.1   -3.3    0.4
I     1.4    2.5    2.1
H    -0.6   -0.3   -3.7
I    -3.6    0.2   -1.2
H     3.1    1.2   -1.9
H     3.2    0.2    2.4
H    -2.2   -0.1   -3.4
I    -0.7    3.6   -1.9
H     2.4    0.8   -3.4
H     1.6    3.0   -2.7
N    -1.6   -0.3   -4.1
C     3.1    1.4   -2.9
H    -3.9   -1.2    2.3
H    -4.7   -0.6    0.9
H    -1.8   -2.4   -3.9
I    -3.0    3.4    1.8
N     2.6    2.8   -3.1
I     2.7   -3.7    1.8
C     4.2    0.0    2.8
H     4.3   -1.9    1.9
H     5.0   -0.6    0.9
H    -1.6    0.4   -4.9
N    -4.8   -1.0    1.9
C    -1.9   -1.6   -4.7
N     4.9   -1.0    1.9
H    -1.6    2.7    4.5
H     3.2    3.5   -2.6
H     4.1    1.4   -3.4
I    -2.9   -4.7   -0.0
H    -0.6    1.5    5.3
H     4.8    0.9    2.8
H     4.1   -0.4    3.8
I     1.2   -5.3   -1.8
H    -4.9    0.9    2.8
H     2.6    3.1   -4.1
H    -1.1   -1.9   -5.5
C    -1.0    2.5    5.4
H    -5.4   -1.9    1.9
H     3.1    4.3    2.9
H    -2.9   -1.6   -5.1
C    -5.5    0.0    2.8
P    -2.5    5.6   -0.5
I     6.1    0.2   -1.2
H    -0.2    3.2    5.4
H     5.8   -1.2    2.3
I     1.9   -0.7   -6.1
H    -5.6    1.4   -3.4
H    -5.5   -0.4    3.8
H    -6.6    1.2   -1.9
H    -6.5    0.2    2.4
H    -1.6    4.6   -5.1
N     3.8    4.8    3.4
P     4.0   -5.8   -0.4
H     4.7    4.4    3.2
N    -1.9    2.6    6.6
H     3.6    4.6    4.5
H    -2.7    1.9    6.6
H    -5.0    4.4    3.2
C    -6.6    1.4   -2.9
I     4.6    5.5   -2.1
I    -1.7    1.6   -7.2
H    -3.3    4.7   -4.9
H     3.4   -5.2    4.6
H     0.4   -7.0   -3.3
I     6.7    3.4    1.8
I    -5.1    5.5   -2.1
H    -6.5    3.5   -2.6
H    -2.3    3.6    6.6
C    -2.5    5.0   -5.5
H     3.9    6.5    2.2
I     2.6    3.8   -6.5
H    -1.3    2.5    7.5
C     3.7    6.3    3.3
H     2.7    6.6    3.6
H    -1.8   -6.6   -4.2
I    -7.0   -3.7    1.8
H    -7.3    0.8   -3.4
P    -5.7   -5.8   -0.4
H    -1.8   -7.5   -2.6
H     7.4   -0.1   -3.4
N    -7.1    2.8   -3.1
I     6.8   -4.7   -0.0
H     2.7   -6.7    4.0
P     1.3    1.6   -8.1
N    -5.9    4.8    3.4
H    -6.6    4.3    2.9
I     2.4    4.5    6.7
I     4.8    0.5    6.9
I    -1.4    8.0   -2.3
H    -2.6    4.7   -6.5
I    -4.9    0.5    6.9
C     3.6   -6.2    4.5
H    -2.2    6.9   -4.5
C    -1.6   -7.6   -3.7
I    -4.1   -3.6   -6.6
I    -3.0    8.0    1.5
N    -0.1   -7.8   -3.8
I    -3.7   -4.2    6.6
H     6.8   -1.6   -5.1
I     8.3   -1.1    2.4
H    -7.1    3.1   -4.1
N    -2.3    6.5   -5.5
H     4.5   -6.4    4.0
H    -6.1    4.6    4.5
P     8.7    1.4    0.5
I    -8.3    2.5    2.1
H     1.4    7.8   -4.2
H     3.6    7.5   -3.3
I     3.3   -8.2    1.5
I     1.7   -3.3    8.2
H     4.5    6.7    3.9
H    -5.8    6.5    2.2
H    -8.1    3.0   -2.7
P     7.1    5.6   -0.5
H     7.9   -2.4   -3.9
N     8.1   -0.3   -4.1
P     2.9   -2.9   -8.2
H     0.2   -7.8   -4.7
H    -5.2   -6.4    4.0
I    -9.1   -0.8   -1.3
I    -3.1    5.8    6.4
H     1.6    8.7   -2.6
H    -1.5    6.8   -6.0
C    -6.0    6.3    3.3
I     0.2   -7.0    6.0
H     0.2   -8.7   -3.3
C     7.8   -1.6   -4.7
H    -5.2    6.7    3.9
H     6.4    4.7   -4.9
H    -6.3   -5.2    4.6
I     5.6   -3.6   -6.6
H     8.1    0.4   -4.9
P    -1.0   -4.8    8.1
P     2.9    2.2    8.8
I     0.0   -3.9   -8.7
C     1.9    8.6   -3.7
H    -2.1   -8.4   -4.2
H     8.1    2.7    4.5
H     2.8   -6.6    6.4
H    -3.1    7.0   -5.9
N     3.7   -6.8    5.9
I     4.8   -8.2   -2.3
N     3.4    8.4   -3.8
H     9.1   -0.3   -3.7
I    -4.9   -8.2   -2.3
H     7.0    1.9    6.6
C    -6.1   -6.2    4.5
I     6.0   -4.2    6.6
I     9.0    3.6   -1.9
H     0.4   -9.7    2.2
I    -7.8   -0.7   -6.1
I    -0.1    2.3    9.7
H     4.5   -6.3    6.4
H    -3.0    1.9   -9.4
P     4.6   -2.2    8.7
I    -8.4   -5.3   -1.8
P     9.6   -3.3    0.4
H    -6.1    7.5   -3.3
H    -0.7   -9.5    3.6
H    -6.9    6.6    3.6
H     1.1   -9.4    3.9
H     3.7    8.3   -4.7
I    -7.0    3.8   -6.5
P    -5.1   -2.2    8.7
H     8.6   -1.9   -5.5
P    -9.8   -3.3    0.4
H    -5.2   -6.3    6.4
C     7.2    5.0   -5.5
I    10.3   -0.8   -1.3
C     0.3   -9.9    3.3
I     3.2   -0.1  -10.0
H     3.9    9.2   -3.3
H    -2.4    8.3    5.9
H    -7.0   -6.7    4.0
I     6.7    8.0    1.5
C     8.7    2.5    5.4
I    -6.4   -8.2    1.5
H     3.9   -7.8    5.9
N     7.8    2.6    6.6
H     7.4    3.6    6.6
H     1.6    9.5   -4.2
H     8.1    4.6   -5.1
H    -1.7    9.7    4.0
P    -2.3   10.4   -0.4
I     0.3    8.0   -7.1
H     9.1    1.5    5.3
P    -2.7   -5.5   -8.8
H     7.1    4.7   -6.5
P   -10.7    1.4    0.5
N    -6.0   -6.8    5.9
H    -3.5    9.4    4.0
I     6.6    5.8    6.4
I    -7.3    4.5    6.7
I     1.2   -8.2   -7.0
I     8.0    1.6   -7.2
I     0.8    3.9  -10.2
I     1.1  -10.7   -2.1
P     2.5    6.2   -8.6
H   -10.3   -0.3   -3.7
I    -2.5   -3.0   10.3
P    -6.7   -2.9   -8.2
N    -3.5    2.0  -10.3
H     4.1   -9.3   -4.5
I   -10.3    3.6   -1.9
H     7.9   -6.6   -4.2
H     7.5    6.9   -4.5
N    -6.3    8.4   -3.8
H     7.8   -7.5   -2.6
P     3.7  -10.5   -0.5
C    -2.7    9.9    4.5
H     6.5    7.0   -5.9
H    -4.3    1.3  -10.3
N     7.4    6.5   -5.5
I    -3.1   -8.2   -7.1
H    -6.0    8.3   -4.7
P    -6.8    2.2    8.8
H     3.1   -9.2   -5.9
H    -5.8    9.2   -3.3
N    -2.5    9.4    5.9
I   -11.0   -1.1    2.4
I     3.5   -0.1   10.8
H    -5.8   -7.8    5.9
H    -3.9    2.9  -10.3
H     9.5    3.2    5.4
H    -6.9   -6.6    6.4
H     8.4    2.5    7.5
P     4.2    6.8    8.2
H     0.5   -1.2   11.4
I     0.6   11.5   -0.0
I     4.6    7.9   -7.0
I     3.6    9.2    6.0
I    11.1    2.5    2.1
H   -10.2    1.5    5.3
H    -0.9    5.4   10.3
C     8.1   -7.6   -3.7
H     5.4    1.3  -10.3
I    -5.1    7.9   -7.0
I     8.3    8.0   -2.3
H     6.7    1.9   -9.4
H    -5.6   -9.3   -4.5
H    -9.9    3.2    5.4
N     3.9   -9.6   -5.5
P    -8.4    1.6   -8.1
H    -2.2    0.9  -11.5
H    -1.2   -1.0   11.8
N     0.3  -11.4    3.4
H    -1.8    2.6  -11.5
H    -1.8    9.9    6.4
I    -8.0   -3.3    8.2
I    -6.5   -0.1  -10.0
C    -2.6    1.9  -11.5
I     4.7   10.9   -1.8
H     6.2    9.4    4.0
H    -3.4    9.5    6.4
N   -11.2   -0.3   -4.1
H    11.3    3.0   -2.7
H     0.0    1.0   12.0
P    -5.5    6.8    8.2
H     4.7   -9.3   -6.0
H    -9.3   -7.0   -3.3
H     7.6   -8.4   -4.2
I    -5.0   10.9   -1.8
H    -8.3    7.8   -4.2
I     4.3    4.5   10.4
P    -6.0  -10.5   -0.5
H    -4.9   -9.3   -6.0
H    -8.1    8.7   -2.6
I     4.3   -4.9  -10.3
H     5.8    2.9  -10.3
N     6.2    2.0  -10.3
C    -7.8    8.6   -3.7
C   -10.7    2.5    5.4
C    -0.2   -1.0   12.2
H     1.3  -11.7    3.2
H    -2.8   11.0    4.6
H   -10.8   -1.9   -5.5
H    -0.4  -11.9    2.9
H     8.2    6.8   -6.0
I    10.9   -5.3   -1.8
H   -11.3    0.4   -4.9
H   -11.5   -2.4   -3.9
H   -11.9   -0.1   -3.4
H     0.2  -11.6    4.5
H   -11.3    2.7    4.5
I    -1.5   -7.6    9.8
I    -6.2   -0.1   10.8
P     0.7   -9.3    8.2
N    -5.8   -9.6   -5.5
P     7.0   -5.5   -8.8
I     3.1  -10.3    6.4
I    -6.1    9.2    6.0
I    -5.4    4.5   10.4
I    -5.3   -4.9  -10.3
C   -11.5   -1.6   -4.7
H     7.3    8.3    5.9
H    12.1    0.8   -3.4
I    -4.8    5.2  -10.5
I     6.6   -8.2   -7.1
I     4.9    5.2  -10.5
H    10.1   -7.0   -3.3
H    -6.6   -9.2   -5.9
C    -0.8    5.7   11.4
N     0.1    0.3   12.7
H     2.9  -11.4   -4.9
P     7.4   10.4   -0.4
I     2.8   -7.6    9.9
P    -7.1    6.2   -8.6
P     8.7   -4.8    8.1
H     1.2   -7.3  -10.5
H     2.8   -6.9  -10.5
I     7.2   -3.0   10.3
H    -0.2  -12.6   -2.6
H     0.1    5.2   11.8
N     9.6   -7.8   -3.8
C     7.0    9.9    4.5
N    12.3    2.8   -3.1
C     3.8  -11.1   -5.5
H    -3.2    2.0  -12.4
H    12.8    1.2   -1.9
I    -3.5   12.4    1.8
N    -9.8   -7.8   -3.8
I    12.4   -3.7    1.8
I    11.6   -0.7   -6.1
H     6.3    9.5    6.4
H    12.9    0.2    2.4
H    -0.2   -1.7   13.0
H   -11.2    4.6   -5.1
H    -9.4   -7.8   -4.7
H    -8.0    9.5   -4.2
H     8.0    9.7    4.0
I     2.0    8.6    9.8
H     2.0    3.9  -12.4
C    12.8    1.4   -2.9
N     7.2    9.4    5.9
H     0.1    7.5   10.9
P    -0.9  -10.0   -8.6
H     1.0    0.3   13.2
H    -1.7    5.4   12.0
I     3.3  -12.7    1.8
I   -12.7    3.4    1.8
I    -9.5   -7.0    6.0
H    -9.5   -8.7   -3.3
P     3.3   12.8    0.4
H    12.3    3.1   -4.1
H     2.5   -1.0  -13.1
I    -1.5   -7.6  -10.8
I   -13.3    0.2   -1.2
H    -8.6   -9.4    3.9
I    -4.1  -12.6   -1.9
I   -12.5   -4.7   -0.0
N     2.1   -7.4  -11.0
H    -1.5    7.6   11.0
P   -12.2    5.6   -0.5
H     4.7  -11.6   -5.1
I    -1.0  -11.7    6.7
N    -0.7    7.1   11.4
I    -3.4    8.6    9.9
H     9.9   -7.8   -4.7
I     9.9   -7.0    6.0
H    -0.6    0.6   13.5
H   -11.0    2.5    7.5
N   -11.5    2.6    6.6
H     9.9   -8.7   -3.3
H    -9.3   -9.7    2.2
I    -9.7   -3.9   -8.7
H    -1.8  -13.2   -2.7
I   -11.4    1.6   -7.2
H    -5.0  -11.6   -5.1
H     9.0   -9.5    3.6
I     9.7   -3.9   -8.7
H    12.9    3.5   -2.6
C     7.1    1.9  -11.5
H   -12.5   -1.6   -5.1
I    -0.3   11.9    6.6
H     3.7  -11.4   -6.5
H    -0.9  -13.0   -4.1
H     1.8   -5.8  -12.3
N    -0.9  -13.3   -3.1
P    11.0    1.6   -8.1
C    -5.9  -11.1   -5.5
H     6.9   11.0    4.6
H    12.7    4.3    2.9
I    -8.5   -8.2   -7.0
H     7.5    0.9  -11.5
H   -13.6   -1.2    2.3
I    -6.6  -10.3    6.4
I    -8.6  -10.7   -2.1
I     9.6    2.3    9.7
P     0.8   10.7   -8.8
I     5.6  -12.6   -1.9
I   -11.1    8.0   -2.3
H   -11.5   -6.6   -4.2
I     2.0    8.5  -10.8
I    -2.0  -13.6    2.1
I    -9.8    2.3    9.7
I    -0.8  -12.3   -6.5
H     4.2    3.8   12.8
