         400
 sphere cut out from bulk 
I    -0.1   -1.9    0.0
P     1.7    0.4   -1.3
H    -2.5    2.0    0.1
I     1.9    2.2    1.4
I    -0.9    2.1   -2.3
H    -1.5    2.6    1.4
H     1.6   -0.4    3.2
H     1.4   -2.1    2.7
C    -2.5    2.5    1.0
H    -3.0    0.9    2.2
C     1.8   -1.4    3.4
H    -1.5   -1.8   -3.4
H     1.5   -3.7   -1.3
H    -2.9   -1.6   -2.5
N    -3.4    1.9    2.0
P    -2.7   -3.3    1.3
I     1.5   -1.3   -4.0
I     4.3   -1.1   -0.4
I    -4.4   -1.1   -0.4
H    -2.9    3.6    0.8
N    -2.6   -1.8   -3.5
I    -2.5   -1.2    3.8
H     0.0   -1.5    4.6
H     2.8   -1.6    3.6
H    -2.7    0.2   -4.1
H     1.8    4.4   -1.2
H    -4.3    1.8    1.6
H    -3.4    2.4    2.9
H     4.5    1.8    1.6
N     1.0   -1.7    4.7
N     1.9   -4.6   -1.7
I     3.5    2.5   -3.1
H     0.3    5.3   -0.8
C    -3.0   -0.8   -4.4
H    -2.9   -2.7   -3.8
C     1.4    5.3   -0.8
H     1.5   -4.7   -2.6
H     2.9   -4.5   -1.7
H     1.2    1.0   -5.5
H     1.4   -1.1    5.5
H     1.1   -2.7    5.0
H     1.8    5.5    0.2
H     0.4   -5.7   -0.8
H     1.5    2.5   -5.0
H     1.8   -5.6    0.2
C     1.5   -5.7   -0.8
P     1.6    4.2    4.0
N     5.4    1.9    2.0
I    -3.0   -5.1   -1.3
I    -0.1    2.0    5.7
H    -2.6   -1.0   -5.4
H    -4.1   -0.8   -4.4
I    -0.9   -5.5    2.7
N     1.1    1.9   -5.8
H     5.8    0.9    2.2
I    -0.9    5.6    2.7
P    -2.7    4.2   -3.9
H     0.1    2.1   -5.9
I     3.5   -4.6    2.6
H     4.7   -0.8   -4.4
H     5.4    2.4    2.9
H     5.9   -1.6   -2.5
H     6.3    2.0    0.1
I    -5.3    2.5   -3.1
I    -3.0    5.9   -1.3
C     6.3    2.5    1.0
N     1.9    6.5   -1.7
H     5.9    3.6    0.8
H     1.9   -6.6   -1.2
H     1.5    6.3   -2.6
P     6.1   -3.3    1.3
H    -6.0   -1.6    3.6
I     0.0   -5.3   -4.8
P    -2.8    0.5    6.6
P    -7.1    0.4   -1.3
I     4.3    2.8    5.2
C     5.8   -0.8   -4.4
H     2.9    6.5   -1.7
H     6.1    0.2   -4.1
N     6.2   -1.8   -3.5
I    -6.9    2.2    1.4
I    -4.5    2.8    5.2
H    -2.7   -4.7    5.1
I     0.0    5.7   -4.8
I     6.3   -1.2    3.8
I    -5.3   -4.6    2.6
P     1.7   -3.2   -6.5
I    -2.4    2.5   -6.7
H     5.9   -2.7   -3.8
H    -5.9   -4.5   -1.7
H     1.5    7.4   -1.3
C     1.9    2.2   -7.1
I     3.5    6.4    2.6
H     3.0    2.0   -6.9
H    -2.8   -3.5    6.4
I     5.8   -5.1   -1.3
H    -7.2   -0.4    3.2
H     7.3    2.6    1.4
C    -7.0   -1.4    3.4
I    -0.8   -1.8   -7.8
H    -2.9   -7.5    0.8
P     1.6   -6.9    4.0
H    -7.4   -2.1    2.7
H     1.5    1.6   -7.8
C    -3.1   -4.4    6.1
H     1.7    3.3   -7.3
I     3.4   -1.1    7.4
H     7.3   -1.8   -3.4
I     1.4   -4.9    6.5
I    -4.3   -4.6   -5.3
H     6.2   -1.0   -5.4
H    -7.3   -3.7   -1.3
I     4.4   -4.6   -5.3
H    -7.0    4.4   -1.2
P    -2.7    7.8    1.3
P     6.1    4.2   -3.9
P    -2.7   -6.9   -3.9
I     5.8    5.9   -1.3
I    -1.0   -1.6    8.2
H     1.4    2.7    7.9
N    -6.9   -4.6   -1.7
I    -7.3   -1.3   -4.0
I     7.9    2.1   -2.3
H    -2.8    6.4    5.1
H    -4.2   -4.5    6.1
H    -1.5   -8.4    1.4
H    -3.0    4.6    6.7
I    -5.3    6.4    2.6
I     3.6   -1.0   -7.9
H     4.6   -4.5    6.1
H    -7.0    5.5    0.2
H    -7.0   -5.6    0.2
C    -2.5   -8.5    1.0
I     8.7   -1.9    0.0
H    -5.9    6.5   -1.7
P     6.0    0.5    6.6
I     1.3    6.1    6.5
I    -8.8   -1.9    0.0
H    -7.3   -4.7   -2.6
H    -1.6   -5.5    7.1
C    -7.4    5.3   -0.8
H    -1.7    5.6    7.1
I    -0.1    9.1    0.0
H     6.0   -4.7    5.1
I     1.9   -8.9    1.4
P    -7.2    4.2    4.0
H    -7.3    2.5   -5.0
N    -7.8   -1.7    4.7
H    -5.8    2.0   -6.9
I    -5.4   -1.1    7.4
H    -7.4   -1.1    5.5
N    -2.7   -5.5    7.0
I    -0.8   -9.0   -2.3
C    -7.3   -5.7   -0.8
N    -2.7    5.6    7.0
H    -7.5    1.0   -5.5
C     5.6   -4.4    6.1
H    -2.5   -9.1    0.1
H     1.4    8.9    2.7
N     1.7    2.8    8.8
H     6.0   -3.5    6.4
I    -4.4    6.5   -5.3
H     1.7    0.7    9.3
I     4.4    6.5   -5.3
I    -5.2   -1.0   -7.9
C    -3.2    6.6    6.1
H    -7.7   -2.7    5.0
I     6.4    2.5   -6.7
H    -2.9    8.3   -3.8
P    -2.6    0.4   -9.2
H     5.9   -7.5    0.8
N    -6.9    6.5   -1.7
H     2.8    2.8    8.8
H    -6.9   -6.6   -1.2
H    -3.3   -5.0   -7.6
I     3.5   -8.5   -3.1
H    -3.4   -8.7    2.9
H    -3.0   -6.4    6.7
H     1.1    8.3    5.0
N    -7.7    1.9   -5.8
P     1.6   -3.2    9.2
H     0.2    1.6    9.7
H    -4.3    6.6    6.1
H    -2.9    4.6   -8.3
P     6.1    7.8    1.3
C     1.3    1.7    9.7
H    -1.5    9.2   -3.4
N    -3.3   -9.2    2.0
I     7.9   -5.5    2.7
H     5.8    4.6    6.7
P     6.1   -6.9   -3.9
I     7.9    5.6    2.7
H     1.5   -8.5   -5.0
H    -8.8   -1.5    4.6
I    -3.1    2.3    9.2
H    -8.5    5.3   -0.8
H    -7.3    6.3   -2.6
H     8.8   -1.5    4.6
H     4.5    6.6    6.1
H     1.4    3.7    9.2
H    -3.0   -5.3    8.0
C    -6.9    2.2   -7.1
I    -9.6    2.1   -2.3
P    -7.0   -3.2   -6.5
H     6.0    6.4    5.1
H    -3.0    9.4   -2.5
N    -2.6    9.2   -3.5
H    -8.4   -5.7   -0.8
H    -3.3    6.1   -7.6
H    -3.1    5.8    8.0
H    -2.8    7.6    6.4
P     1.7    7.8   -6.5
H    -4.3   -9.3    1.6
C     1.8    9.6    3.4
H    -1.3   -4.8   -9.1
H     4.5   -9.3    1.6
H    -7.3    7.4   -1.3
H     2.8    9.4    3.6
I    -5.3   -8.5   -3.1
N     1.0    9.3    4.7
H    -0.0    9.5    4.6
H     9.1    5.3   -0.8
P    10.5    0.4   -1.3
C     5.6    6.6    6.1
H     5.4   -8.7    2.9
I     8.7    2.0    5.7
I     4.3   -8.2    5.2
I     0.1    1.8  -10.5
H     2.0   -1.9  -10.3
C     6.3   -8.5    1.0
H     5.5   -5.0   -7.6
N    -3.2   -5.5   -8.5
N    -3.2    5.5   -8.5
I    -0.1   -9.0    5.7
I     1.4    9.8   -4.0
H   -10.3    2.6    1.4
I    -4.5   -8.2    5.2
I     2.0   -5.2   -9.1
P    -7.2   -6.9    4.0
H    -7.1    3.3   -7.3
H     0.1   -8.9   -5.9
H    -8.7    2.1   -5.9
H    10.2   -2.1    2.7
I    -8.9    2.0    5.7
H    -2.7   -3.8   -9.7
H    -3.0  -10.1    2.2
N     6.1   -5.5    7.0
H    -7.3    1.6   -7.8
P     1.7  -10.6   -1.3
H     9.2   -5.7   -0.8
H     1.8   -7.8   -7.3
N     6.1    5.6    7.0
H     5.9    8.3   -3.8
I     4.3   10.0   -0.4
I    -2.5    9.8    3.8
N     1.2   -9.1   -5.8
N     5.5   -9.2    2.0
H    10.4   -0.4    3.2
I    -4.5   10.0   -0.4
H    -2.9   -6.5   -8.3
H     8.9    2.1   -5.9
C    -2.4   -4.8   -9.5
H     5.8   -6.4    6.7
I    10.7    2.2    1.4
H     1.7    1.8   10.7
H    -2.6   -1.7   10.6
N     9.8   -1.7    4.7
I     2.0    5.8   -9.1
H    10.3   -3.7   -1.3
H   -10.3   -1.8   -3.4
I    -7.4   -4.9    6.5
H    -6.0    2.8    8.8
I     5.6    2.3    9.2
H     6.3   -9.1    0.1
I    10.3   -1.3   -4.0
P     6.2    0.4   -9.2
I    -2.4   -8.6   -6.7
H    -7.4    2.7    7.9
H    -1.4    6.3   -9.1
H     5.9    4.6   -8.3
H     5.7   -5.3    8.0
H     5.5    6.1   -7.6
C    10.6   -1.4    3.4
H     1.6   10.7    3.2
H    -4.2    5.4   -8.9
H     7.3   -8.4    1.4
I    -8.7   -5.3   -4.8
H    -4.2   -5.6   -8.9
I    -6.9   -8.9    1.4
I     8.0   -1.8   -7.8
H     5.8    9.4   -2.5
I     8.8   -5.3   -4.8
H     5.7    5.8    8.0
H     4.6    5.4   -8.9
H     1.4    9.9    5.5
I     7.8   -1.6    8.2
H     9.9   -2.7    5.0
I    -9.7   -5.5    2.7
C     1.9   -8.8   -7.1
H     7.2   -5.5    7.1
H   -11.3    2.0    0.1
H     4.6   -5.6   -8.9
H     7.1    5.6    7.1
H     0.5   -2.1  -11.3
H    10.0    1.0   -5.5
I    -8.8    5.7   -4.8
I    -9.7    5.6    2.7
I     8.8    5.7   -4.8
C    10.2    5.3   -0.8
H    10.6    4.4   -1.2
H     1.3  -10.1   -5.5
N     5.5    5.5   -8.5
C     1.6   -2.1  -11.3
H     1.4   -8.4    7.9
N     5.6   -5.5   -8.5
H     6.0    7.6    6.4
H    10.2   -1.1    5.5
C    -3.1   10.3   -4.4
C   -11.3    2.5    1.0
C    -2.4    6.2   -9.5
I    -7.5    6.1    6.5
H    10.3   -4.7   -2.6
N    -7.0    2.8    8.8
N     6.2    9.2   -3.5
N     9.9    1.9   -5.8
P     1.7   11.5   -1.3
H    -3.0   -0.1   11.3
H    -7.1    0.7    9.3
H     3.0   -9.0   -6.9
H    10.3    2.5   -5.0
H    -2.7   10.1   -5.4
H    -6.0    9.4    3.6
N    10.7   -4.6   -1.7
C    10.2   -5.7   -0.8
C    -2.6   -1.1   11.5
I    -0.2    5.5   10.5
P    10.4    4.2    4.0
H     1.6   -0.0  -11.8
H     1.4   -7.4    9.2
H    -2.7  -10.8   -4.1
H     5.8  -10.1    2.2
I    -0.2   -5.6   10.5
H    -7.4    8.9    2.7
H    -4.1   10.3   -4.4
H    10.6    5.5    0.2
I     4.2   -4.8   10.1
H     1.6  -11.4    3.2
I    -4.3    2.6  -10.9
H    10.6   -5.6    0.2
I   -11.3   -1.2    3.8
N   -11.3   -1.8   -3.5
H    -2.4   -5.4  -10.4
P   -11.5   -3.3    1.3
I     4.5    2.6  -10.9
H    -1.6   -1.1   11.9
H     6.0   -3.8   -9.7
H   -11.8    0.9    2.2
H     5.9   -6.5   -8.3
I    -4.6   -4.8   10.1
P    -7.2   -3.2    9.2
H     4.6   10.3   -4.4
H   -11.7   -1.6   -2.5
H    -2.4    5.6  -10.4
I    -0.8    9.2   -7.8
I     1.8   -1.5   11.9
P     1.6    7.8    9.2
H   -11.5    0.2   -4.1
I    -2.9   -1.5  -11.8
H     7.2    9.2   -3.4
N     1.8   -8.3    8.8
I     8.0   -9.0   -2.3
H   -11.7    3.6    0.8
H     2.0   -3.0  -11.7
I     6.3    9.8    3.8
H    -2.7   11.3   -4.1
H    -7.3   -8.5   -5.0
H    11.6   -1.6    3.6
H     6.2   -1.7   10.6
N     2.0   -0.9  -12.2
H    10.3    6.3   -2.6
H     2.8   -8.2    8.8
C    -7.5    1.7    9.7
H    -7.7    8.3    5.0
H    -2.8    7.2   -9.7
C    -7.0    9.6    3.4
H    -7.4    3.7    9.2
P    -7.1    7.8   -6.5
H     1.5   -9.5   -7.8
N   -12.2    1.9    2.0
C     6.4   -4.8   -9.5
I    -9.6   -1.8   -7.8
I    -6.8   -5.2   -9.1
H    -6.8   -1.9  -10.3
I    -1.0    9.4    8.2
H    -3.0   11.9    2.2
N    10.7    6.5   -1.7
C     5.7   10.3   -4.4
H   -11.7   -2.7   -3.8
H     3.0   -0.9  -12.2
H    10.6   -6.6   -1.2
