         400
 sphere cut out from bulk 
H    -0.1   -1.8   -0.1
I    -2.1   -0.5    0.6
H     1.5   -1.8    0.2
N     0.8   -2.2   -0.4
H     0.9   -1.8   -1.3
I     3.1   -0.5    1.7
H     0.0    3.6    0.3
H     0.5    0.1    3.7
I     1.6   -0.4   -3.3
C     0.8   -3.7   -0.3
H     0.7    3.7   -1.3
H     1.8    3.7    0.1
H    -2.4   -0.3   -3.3
C     0.9    4.0   -0.3
H    -3.9   -0.5   -1.4
H     0.7   -4.0    0.7
H     0.0   -4.1   -0.9
H     1.8   -4.0   -0.7
H     3.9   -0.3   -2.4
P    -3.8    1.8    2.2
C     1.0    0.0    4.7
H    -4.2    1.0   -2.1
N    -4.2   -0.1   -2.2
I    -1.3    3.6    3.0
C    -3.5   -0.6   -3.4
H     2.0   -0.3    4.6
I    -0.9   -3.9    3.3
P    -3.7   -2.7    2.5
H     0.3   -1.9    4.9
H    -3.6   -1.6   -3.5
N     4.9   -0.1   -2.2
H     0.9    1.0    5.2
I    -4.3    3.2   -0.6
H     5.3   -0.5   -1.4
I    -0.9    3.7   -4.0
H     5.0    1.0   -2.1
N     0.3   -1.0    5.4
N     0.8    5.5   -0.3
I    -3.1   -0.2    4.7
H    -0.8   -0.8    5.5
I    -1.1   -4.1   -3.7
H    -5.3   -0.3   -2.4
H    -3.9   -0.1   -4.3
I     4.8    3.2   -0.6
H    -0.1    5.9   -0.6
H     1.0    5.9    0.7
P     5.4    1.8    2.2
P     1.0    1.8   -5.7
I    -4.3   -4.3   -0.1
H     1.6    5.9   -0.9
I     3.3    3.5    3.9
I    -6.1   -0.5    1.7
P     0.9   -2.7   -5.6
I     4.8   -4.3   -0.1
H     0.7   -1.1    6.4
I    -1.4   -0.3   -6.4
P     5.4   -2.7    2.5
C     5.6   -0.6   -3.4
H     5.5   -1.6   -3.5
H     5.3   -0.1   -4.3
P    -3.7    5.0   -3.2
I     3.6    3.3   -5.0
I     3.5   -4.3    4.4
I     7.1   -0.5    0.6
P     0.6    5.0    5.0
I     3.5   -4.3   -4.7
H    -2.7    6.5    1.9
P    -3.7   -5.8   -2.8
H     6.7   -0.3   -3.3
H     0.2    5.9   -4.7
I    -2.0    7.2   -1.3
I     6.0   -0.2    4.7
P     0.9   -5.8    5.0
H    -3.8    0.9    6.7
H    -7.6   -1.8    0.2
I    -5.8    3.5    3.9
I     1.4    7.3    2.6
I     2.6   -0.4   -7.5
H    -4.5    5.8    3.4
P     5.5    5.0   -3.2
H    -4.3    6.8    1.2
I     3.0    7.1   -2.4
H    -3.3   -7.2    1.9
H     4.6    5.8    3.4
I    -5.5    3.3   -5.0
H    -7.3    3.7    0.1
C    -3.6    7.1    2.0
I     0.1    3.3    7.5
I    -7.6   -0.4   -3.3
I    -5.6   -4.3    4.4
H    -3.0    1.0   -7.7
H     1.1    7.2   -4.1
H    -3.0    3.1    7.2
H    -7.3   -4.0   -0.7
H     4.9    6.8    1.2
H    -7.1   -0.3    4.6
N     0.5    6.9   -4.8
P     5.4   -5.8   -2.8
I    -1.9   -8.2   -1.3
H    -8.2   -1.8   -1.3
I    -5.7   -4.3   -4.7
I     1.5   -8.0    2.6
H     5.3    0.9    6.7
N    -8.3   -2.2   -0.4
N    -4.3    6.8    3.3
N    -4.0    1.3    7.6
I     2.3   -0.5    8.5
H     4.4    3.2    6.9
I     0.1   -4.4    7.7
H    -0.4    7.4   -4.9
H    -3.8    3.2   -7.4
H    -3.7    7.1    4.1
H     3.9    7.3    3.3
H    -3.3    0.9    8.3
N     4.9    6.8    3.3
H    -4.7    3.2    6.9
C    -3.9    2.8    7.6
H    -4.0   -4.3    6.9
H     4.2    0.9    8.0
H    -3.4    8.2    1.9
C    -8.3   -3.7   -0.3
I     0.4    3.4   -8.4
H     2.1    6.4   -6.1
I     7.8    3.6    3.0
H     1.2   -8.1   -4.1
I     3.1   -8.2   -2.4
C    -3.5   -8.2    2.0
H    -2.6   -4.3   -7.6
H     9.0   -1.8   -0.1
C    -8.3    4.0   -0.3
C     5.5    7.1    2.0
N    -3.7    1.4   -8.4
H    -8.4    3.7   -1.3
H    -0.3   -7.9   -4.9
H     4.5    1.0   -8.0
N     5.1    1.3    7.6
H    -4.6    1.0   -8.0
I     0.4   -4.3   -8.3
H    -2.5   -8.8    1.9
H    -8.4   -4.0    0.7
H    -8.6    0.1    3.7
I    -1.7    7.4    5.6
C    -8.1    0.0    4.7
H    -4.9    0.9    8.0
H     6.5    6.5    1.9
C     1.2    7.0   -6.1
H     5.8   -7.2    1.9
H    -9.3   -1.8   -0.1
H     0.0   -9.4   -0.6
H     1.1   -9.4    0.7
H    -5.2    7.3    3.3
H    -4.1   -8.5    1.2
C    -3.6    2.9   -8.4
H     4.1   -8.0    3.3
I    -3.0    7.4   -5.3
C     5.2    2.8    7.6
H     1.7   -9.4   -0.9
H    -7.6    5.9   -0.9
H     5.2   -4.3    6.9
H     0.5    6.7   -6.9
I     8.2   -3.9    3.3
I    -6.1    7.1   -2.4
H     5.3    3.2   -7.4
H    -2.7    3.2   -8.8
I     8.0   -4.1   -3.7
H     1.5   -7.2   -6.3
N     0.6   -8.4   -4.8
H     1.0   -1.1   -9.6
H    -4.4   -4.5   -7.5
H    -8.2    1.0    5.2
I    -1.7   -0.4    9.6
H     5.5    7.1    4.1
H    -9.1    3.6    0.3
I    -1.6   -8.0    5.6
I     8.2    3.7   -4.0
H     9.2    3.6    0.3
H    -3.6   -8.3    4.1
N     0.9   -9.8   -0.3
H    -2.9   -4.4    8.4
H     4.7   -4.5   -7.5
H     6.2    1.0   -7.7
N    -8.3    5.5   -0.3
H     5.0   -8.5    1.2
H    -3.5    1.0   -9.3
H     6.2    3.1    7.2
C    -3.9   -4.8    7.9
I    -6.6   -0.4   -7.5
I    -2.9   -7.9   -5.3
I     7.7   -0.3   -6.4
C    -3.6   -4.7   -8.1
H    -9.1   -4.1   -0.9
N    -4.2   -8.5    3.3
H    -4.1    3.2    8.6
H     8.4   -0.8    5.5
N     5.5    1.4   -8.4
H    -5.1   -8.0    3.3
H     9.2   -4.1   -0.9
H    -8.1    5.9    0.7
I     2.5    7.2    6.6
H    -3.0   -6.5    7.1
P    -8.2    1.8   -5.7
H     5.7    8.2    1.9
C     5.6   -8.2    2.0
N     9.9   -2.2   -0.4
I     7.1    7.2   -1.3
H     5.9    0.9    8.3
H    -8.9   -1.9    4.9
H     9.7    0.1    3.7
P    -8.2   -2.7   -5.6
H    10.1   -1.8   -1.3
H     1.4    8.1   -6.3
C     1.3   -8.3   -6.1
N     5.0   -8.5    3.3
P     0.6    1.7   10.3
C     5.5    2.9   -8.4
H    -3.3   -6.7   -7.3
N    -8.9   -1.0    5.4
I    -6.0   -8.2   -2.4
H     5.0    3.2    8.6
H     0.3   -9.4   -4.7
H    -0.4   -0.7  -10.5
H     4.4   -4.5    8.5
H    -4.4    3.2   -9.1
H     9.9    3.7   -1.3
C     5.3   -4.8    7.9
P    -3.8    9.5   -2.8
N    -3.8   -6.2    7.7
N     0.6   -1.0  -10.6
C    10.0   -3.7   -0.3
H    -8.5   -1.1    6.4
H     9.8   -4.0    0.7
H    -3.7   -4.2   -9.1
H     4.7    3.2   -9.1
P     0.6   -2.7   10.3
H    -4.7   -4.5    8.5
C    10.0    4.0   -0.3
P     0.7    9.5    5.0
H     9.4   -1.9    4.9
H     5.6   -8.3    4.1
I     2.6   -8.1    6.6
H    10.6   -1.8    0.2
H     9.1    5.9   -0.6
H     4.5   -6.7    7.3
N    -3.5   -6.2   -8.3
N     9.4   -1.0    5.4
H     1.2    1.0  -10.8
C     5.6   -4.7   -8.1
I    -6.9   -0.5    8.5
H     5.7    1.0   -9.3
H     6.5   -4.3   -7.6
H    -9.2    5.9   -0.6
H    -4.6   -6.7    7.3
I     7.2   -8.2   -1.3
I     6.1    7.4   -5.3
I    -7.8    7.3    2.6
H     2.2   -8.9   -6.1
H    -4.4   -9.6    3.4
P    -8.5    5.0    5.0
H     0.6   -8.7   -6.9
C    10.1    0.0    4.7
H     6.6   -8.8    1.9
H     4.8   -9.6    3.4
H     0.2    6.6    9.1
I    10.7   -0.4   -3.3
I   -11.2   -0.5    0.6
H    -0.1   11.2   -0.9
H     0.6   -1.9  -11.1
P     5.3    9.5   -2.8
N     5.4   -6.2    7.7
P    -8.3   -5.8    5.0
I   -10.1   -3.9    3.3
H     6.2   -4.4    8.4
H    -2.7   -6.5   -8.9
H    -7.0    6.4   -6.1
H    -9.9   -0.8    5.5
P    -3.6  -10.3   -3.2
H    10.0    1.0    5.2
H     0.6   11.3    0.7
H     6.5    3.2   -8.8
I    -7.6   -8.0    2.6
C     1.0  -11.3   -0.3
I   -10.0    3.7   -4.0
N    10.0    5.5   -0.3
I     6.2   -7.9   -5.3
C     1.3    0.1  -11.3
H     1.7   11.3   -0.7
H     5.5   -4.2   -9.1
I   -10.4    3.6    3.0
H     6.1   -6.5    7.1
P     0.8  -10.3    5.0
H     5.8   -6.7   -7.3
H    10.9    3.7    0.1
H    -3.6   -6.7    8.7
H    -8.1    7.2   -4.1
C     0.7   11.6   -0.3
I   -10.3   -4.1   -3.7
H     2.3   -0.2  -11.4
H    -8.9    5.9   -4.7
H    10.9   -4.0   -0.7
I    -2.8   -0.2  -11.3
H     0.1  -11.7    0.3
H    -4.3   -6.6   -8.7
H    -3.1    8.8    7.1
H    10.1    5.9    0.7
P    10.1    1.8   -5.7
H     9.8   -1.1    6.4
N     5.7   -6.2   -8.3
H     0.8  -11.7   -1.3
P    10.0   -2.7   -5.6
H     1.9  -11.7    0.1
I    -6.7    7.2    6.6
I    -4.4   11.0   -0.1
I     7.5    7.4    5.6
H    -3.4    8.7   -7.3
I    -1.2   11.2   -3.7
H     4.8   -6.6   -8.7
I     3.3    3.3   11.0
H     1.8    6.4    9.9
I    -1.0   11.4    3.3
I     4.7   11.0   -0.1
H     9.3    5.9   -4.7
H   -11.6   -0.3   -3.3
H    -7.4   -9.4   -0.9
H    11.2   -0.3    4.6
H    -8.0   -8.1   -4.1
P     9.8    5.0    5.0
N    -8.7    6.9   -4.8
C     0.9    7.0    9.9
P     5.6  -10.3   -3.2
I    -1.2  -11.7    3.0
P     1.0    5.1  -11.0
I     7.4   -0.4    9.6
H     4.4    8.7    7.3
I     2.8    7.3   -9.4
H     1.2   -7.3    9.7
H    -7.6   -7.2   -6.3
I    -9.0    3.3    7.5
H     5.5   -6.7    8.7
H    10.7    5.9   -0.9
C    -7.9    7.0   -6.1
I   -10.5   -0.3   -6.4
I    12.2   -0.5    1.7
H    -4.8    8.7    7.3
I     7.6   -8.0    5.6
I    -0.8  -11.7   -4.0
H     0.8    0.2  -12.3
I    -6.6   -8.1    6.6
I     9.2    3.3    7.5
I     3.4   11.0    4.4
H    -4.2   -0.1   11.7
H    -8.0   -9.4    0.7
H     8.7    7.4   -4.9
P     1.2   -5.8  -11.0
I     3.2   -4.3   11.3
I     3.4   11.1   -4.7
N    -3.9    9.1    7.7
H     0.3   -8.7    9.1
P    10.0   -5.8    5.0
I    -1.2    3.6   12.0
I    -8.7    3.4   -8.4
H     1.1    8.0    9.7
H    -8.1   -1.1   -9.6
I    -9.0   -4.4    7.7
H     4.9   -0.1   11.7
I     2.9   -8.1   -9.4
I     1.3   -0.5   12.6
H     5.7    8.7   -7.3
H     6.4   -6.5   -8.9
H    -0.1    5.9   11.3
H    -3.7    8.6    8.7
N     9.6    6.9   -4.8
I    -8.7   -4.3   -8.3
H     8.8   -7.9   -4.9
I     9.2   -4.4    7.7
N    -8.2   -9.8   -0.3
H    -6.9   -8.9   -6.1
H     6.0    8.8    7.1
I    -4.2  -12.1   -0.6
I    -5.8    3.3   11.0
H    -7.7    8.1   -6.3
H    -2.8    8.8   -8.9
N    -3.6    9.2   -8.3
I    -1.4    7.4  -10.4
I     3.4  -11.8    3.9
H    -8.6    6.7   -6.9
I     3.8   -4.2  -11.6
N    -8.6   -8.4   -4.8
C     1.0   -8.4    9.9
C    -7.8   -8.3   -6.1
I     6.3   -0.2  -11.3
H    -2.7   -0.4   12.7
N     5.2    9.1    7.7
H    -9.6    7.4   -4.9
I    -1.4   -4.2   12.3
I     4.9  -12.1   -0.6
H    -4.4    8.7   -8.7
N     0.2    6.8   11.1
I    10.5    7.3    2.6
C   -12.6   -0.6   -3.4
H   -13.0   -0.5   -1.4
