         400
 sphere cut out from bulk 
P    -0.4    0.0    0.9
I     2.0    0.2   -1.1
I    -1.6   -2.1   -1.2
I    -1.7    2.1   -1.1
P    -0.4    0.1   -3.3
I     0.7    2.1    3.1
I     0.9   -2.1    3.0
H     3.6    2.0   -0.4
I    -2.9   -0.2    3.0
H     3.2    3.0    1.8
H     3.7   -1.7   -2.5
H    -1.1   -4.7    0.1
H    -4.1    2.6   -0.4
N     4.2    2.7   -0.0
H    -0.0   -4.5    2.3
H     0.6   -5.0    0.1
H     4.5    1.7    1.8
P    -0.4   -0.0    5.2
H    -3.4   -2.8   -2.8
C     4.2    2.7    1.5
H     3.9    3.6   -0.4
H    -4.8    1.7    1.8
C    -0.3   -5.4    0.5
H    -1.1    4.8   -2.5
C     3.8   -2.7   -3.0
H     3.7   -3.5   -2.2
H     3.2   -2.5    3.7
H     3.0   -2.9   -3.7
N    -5.0    2.7   -0.0
N    -0.4   -5.4    2.0
I     0.8   -1.9   -5.3
H     0.6    5.2   -2.5
H     5.2    2.6   -0.4
H    -0.1    4.4    3.8
H    -4.3    3.5    1.8
I     0.8    2.2   -5.4
C    -5.0    2.7    1.5
H    -5.7    2.0   -0.4
I    -2.9    0.0   -5.4
H    -4.4   -1.9    3.8
N    -4.1   -2.8   -3.6
H    -4.0   -2.0   -4.2
H    -1.3   -5.5    2.3
C    -0.4    5.5   -2.8
H     5.0    3.5    1.8
H    -5.6   -1.7   -2.5
H    -0.5   -6.4    0.1
H     4.8   -1.9    3.8
N     4.2   -2.7    4.1
H    -5.4    3.6   -0.4
H    -0.0    4.5   -4.7
H     0.3   -6.1    2.3
I     3.1    5.9   -1.1
N    -0.4    5.4    4.1
C    -5.5   -2.7   -3.0
H    -4.0   -3.7   -4.1
H    -1.4    5.5    3.8
I     3.0   -6.0   -1.1
N     5.1   -2.8   -3.6
H    -5.6   -3.5   -2.2
H     4.5   -3.6    3.8
N    -0.3    5.5   -4.3
H    -6.0    3.0    1.8
H    -0.6    6.5   -2.5
H    -4.7   -3.6    3.8
N    -5.1   -2.7    4.1
H     5.9   -2.8   -2.8
H     5.3   -2.0   -4.2
I     6.4   -0.2    3.0
H     0.2    6.1    3.8
H     4.0   -1.7    5.9
I    -7.3    0.2   -1.1
H    -1.3    5.6   -4.7
P    -0.4    0.0   -7.5
H     3.2    2.2   -6.4
C     4.2   -2.7    5.6
H    -6.0   -2.5    3.7
I     2.0   -0.0    7.3
H    -1.2    4.6    5.9
I    -3.8   -5.9    3.1
H     5.3   -3.7   -4.1
H     3.4   -3.4    6.0
I    -1.7    2.0    7.2
I    -1.6   -2.3    7.2
C    -0.4    5.3    5.6
I    -3.7    6.1    3.1
H     0.3    6.2   -4.7
H    -6.2   -2.9   -3.7
H    -4.1   -3.0    6.0
H     0.5    5.0    6.0
I     7.5    2.1   -1.1
C    -5.1   -2.7    5.6
H     0.5   -4.6   -6.6
I     7.7   -2.1   -1.2
H    -5.3   -1.7    5.9
H    -4.6    1.4   -6.6
H     4.7    1.4   -6.6
N     3.9    1.9   -7.1
H    -1.2   -5.0   -6.6
I     6.4    0.0   -5.4
H     5.2   -3.0    6.0
I    -2.5   -8.0   -1.1
I    -6.1    5.9   -1.1
I     5.5   -5.9    3.1
I    -2.6    8.1   -1.1
H     3.5    1.3   -7.8
C    -0.2   -5.3   -6.9
H    -0.7    6.3    6.0
I    -6.2   -6.0   -1.1
I    -3.8   -5.8   -5.3
I     5.5    6.1    3.1
I     1.8   -8.1    3.0
I     1.8    8.1    3.0
P     8.8    0.0    0.9
I    -3.6    6.1   -5.4
H    -5.8   -3.4    6.0
H    -4.3    3.8   -7.0
N    -5.3    1.9   -7.1
H     0.0   -6.3   -6.6
H    -6.1    2.2   -6.4
P     4.2    8.1    0.9
I    -8.4   -2.1    3.0
P     4.3   -8.1    0.9
H    -0.7   -4.5    8.0
H     4.9    3.8   -7.0
P    -0.6   -0.1    9.3
I    -8.6    2.1    3.1
H     8.1   -4.7    0.1
C     4.5    3.1   -7.7
P     8.9    0.1   -3.3
P    -5.0   -8.1    0.9
P    -5.0    8.1    0.9
I     5.5   -5.8   -5.3
C    -4.8    3.1   -7.7
H     3.4    1.2    9.0
P     4.3    8.1   -3.2
H     3.6    3.7   -8.2
P     4.3   -8.1   -3.2
H    -4.2    2.8    8.3
I     2.1    0.1   -9.5
H     8.1    4.8   -2.5
P    -9.7    0.0    0.9
H     0.6   -5.5    8.0
H    -0.6    9.8    0.1
H    -5.7    1.3   -7.8
I     1.9    8.0   -5.4
I     2.9   -6.0    7.2
H    -0.6   -4.4   -8.8
H    -4.1    2.9   -8.5
I     3.0    6.0    7.2
I     5.6    6.1   -5.4
I    -1.6    2.1   -9.6
N    -0.2   -5.3   -8.4
I    -1.4   -2.2   -9.6
H     3.5    3.6    8.6
H     7.9   -5.5    2.3
I     1.9   -8.2   -5.4
H    -8.6   -5.0    0.1
H    -0.5   -9.6   -2.5
N    -0.4   -5.4    8.4
P    -4.9   -8.1   -3.2
P    -5.0    8.1   -3.2
H     5.1    2.8    8.3
H    -1.0   -6.1    8.0
I    -8.4   -1.9   -5.3
P    -9.6    0.1   -3.3
P     8.8   -0.0    5.2
H     0.2   10.0    2.3
I    -8.5    2.2   -5.4
I    -7.3   -0.0    7.3
H     5.2    2.9   -8.5
H     7.9    5.5    3.8
H     0.7   -5.4   -8.8
H    -8.6    5.2   -2.5
C     8.9   -5.4    0.5
P     4.3   -8.0    5.2
P     4.2    8.1    5.2
C     4.3    3.0    9.1
H     9.2   -4.5    2.3
I     6.7   -8.0   -1.1
I     6.7    8.1   -1.1
H    -9.3   -4.5    2.3
N     8.9   -5.4    2.0
I     3.0   10.1   -1.1
N     3.8    1.8    9.7
I     9.9    2.1    3.1
H    -5.6    3.7   -8.2
I     7.5    2.0    7.2
H    -0.9   -6.0   -8.8
H     0.3  -10.0    3.8
C    -4.9    3.0    9.1
P    -5.0   -8.0    5.2
I    10.1   -2.1    3.0
H    -5.9    1.2    9.0
I     7.7   -2.3    7.2
C    -0.4   10.8    0.5
I     3.2  -10.3   -1.1
H     8.7   -6.4    0.1
H     8.0    5.6   -4.7
C     8.9    5.5   -2.8
P    -5.1    8.1    5.2
H     9.2    4.4    3.8
H    -1.4   10.6    2.3
N    -0.4   10.8    2.0
H    -5.8    3.6    8.6
P    -9.7   -0.0    5.2
H     0.3   -9.9   -4.7
H     3.0    2.1   10.4
H    -9.3    4.4    3.8
C    -9.6   -5.4    0.5
H     8.1    4.6    5.9
I    -2.6   -7.9    7.3
C    -0.3  -10.7   -2.8
I   -10.8   -2.1   -1.2
H     8.7    6.5   -2.5
H     9.9   -5.0    0.1
I    -3.7  -10.0    3.1
H     0.6   11.1    0.1
H    -9.0   -6.1    2.3
N     8.9    5.4    4.1
N    -9.6   -5.4    2.0
H     0.7  -10.9   -2.5
I   -11.0    2.1   -1.1
H     0.4   -4.7   10.2
I    -6.2    6.0    7.2
H     4.5    1.3   10.2
C    -0.4   -5.4    9.9
N    -5.5    1.8    9.7
N     8.9    5.5   -4.3
I    -2.7    8.3    7.3
H    -1.3  -10.6    3.8
I    -6.4   -6.0    7.2
H     9.3    4.5   -4.7
I    11.3    0.2   -1.1
H    -9.3    4.5   -4.7
H    -4.7    1.3   10.2
I    -7.4   -8.1    3.0
H   -10.4   -4.7    0.1
I    -3.9   10.3    3.1
H    -4.5    3.7    9.8
H     9.9    5.2   -2.5
C    -9.6    5.5   -2.8
I    -7.5    8.1    3.0
H    -1.2   11.5    0.1
N    -0.3  -10.7   -4.3
H    -0.6   -9.8    6.0
H     8.0   -5.0   -6.6
H    -1.4   -5.1   10.3
N    -0.3  -10.8    4.1
H    -9.0    6.1    3.8
H     4.8    3.7    9.8
H     9.5   -6.1    2.3
H    -1.2  -10.5   -4.7
P     8.9    0.0   -7.5
I    10.1   -1.9   -5.3
I    10.1    2.2   -5.4
I     3.1   -5.9   -9.6
I     0.7    2.1   11.4
P    -0.3    0.1  -11.7
H    -1.1  -11.4   -2.5
H    -9.8   -6.4    0.1
I     0.7   -2.0   11.5
H   -10.4    4.8   -2.5
H    -8.7    5.0    6.0
H     4.1   -1.6  -10.9
P     4.4   -7.9   -7.5
C     8.8    5.3    5.6
N    -9.7    5.4    4.1
I     3.2    6.1   -9.6
I    -3.0   -0.1   11.4
H    -0.0    9.8   -6.6
N    -9.6    5.5   -4.3
H    -8.7   -4.6   -6.6
H     3.6   -3.3  -10.8
H    -9.0    6.2   -4.7
P     4.3    8.2   -7.5
I    -7.2    0.1   -9.5
H    -3.9   -2.9  -10.8
H    -1.0    4.7  -10.9
H    -0.1   11.7    2.3
I     5.6  -10.0    3.1
H     9.5    6.1    3.8
I    -3.6  -10.0   -5.4
P    -4.9   -7.9   -7.5
I    -6.3   10.1   -1.1
I    -6.1  -10.3   -1.1
H     0.7    5.1  -10.8
I     5.4   10.3    3.1
H    -0.1   -6.4   10.2
H    -9.9    6.5   -2.5
I    -7.4    8.0   -5.4
H    -5.2   -1.6  -10.9
P    -5.0    8.2   -7.5
H   -10.6   -5.5    2.3
C    -0.4  -10.8    5.6
I    -3.9   10.3   -5.3
H     8.6    6.3    6.0
I    -7.3   -8.2   -5.4
P    -9.7    0.0   -7.5
H    -0.0  -11.7    3.8
C     4.3   -2.6  -11.2
H    -6.3    2.1   10.4
H     9.6    6.2   -4.7
C    -9.7    5.3    5.6
H     5.3   -2.9  -10.8
C    -0.3    5.4  -11.2
I     7.7    2.1   -9.6
I   -12.1   -0.2    3.0
C    -4.9   -2.6  -11.2
H     0.1  -11.6   -4.7
H     9.8    5.0    6.0
H     8.5   -4.5    8.0
H   -10.6    5.5    3.8
C     9.0   -5.3   -6.9
I    -2.5   -7.8   -9.6
I     7.8   -2.2   -9.6
H    -0.6    6.4  -10.8
I     6.7   -7.9    7.3
H     0.6  -11.1    6.0
H     9.8   -4.6   -6.6
H    -5.7   -3.3  -10.8
I     5.7  -10.0   -5.4
P     8.7   -0.1    9.3
I     5.4   10.3   -5.3
I     3.1  -10.1    7.2
I     2.9   10.2    7.2
I     6.6    8.3    7.3
I    -6.2   -5.9   -9.6
C    -0.3   10.8   -6.9
H   -10.6    5.6   -4.7
H   -10.5    4.6    5.9
H    -1.1   10.0    8.0
C    -9.5   -5.3   -6.9
I    -6.1    6.1   -9.6
H    -0.1    4.4   12.1
I    -2.5    8.4   -9.6
H    -1.3   11.1   -6.6
H    12.5    3.0    1.8
H    -9.2   -6.3   -6.6
H     9.3   -6.3   -6.6
H    12.9    2.0   -0.4
H    -1.1  -11.6    5.9
P     4.2   -8.0    9.4
I     6.3   -0.1   11.4
H    -8.7   -5.5    8.0
P     4.2    8.1    9.4
H     8.3   -6.1    8.0
H     8.7    9.8    0.1
H     8.7   -4.4   -8.8
H     4.0  -12.5   -0.4
H    12.3   -2.9   -3.7
I   -10.8   -2.3    7.2
H   -10.0    6.3    6.0
H     8.7   -9.6   -2.5
H   -12.7   -2.8   -2.8
I   -12.1    0.0   -5.4
H    12.9   -1.7   -2.5
H     0.5   11.5   -6.6
H    12.5   -2.5    3.7
H     0.5   10.6    8.0
I   -11.0    2.0    7.2
H     3.7   12.6   -2.2
P    -5.0   -8.0    9.4
H   -10.5   -5.0   -6.6
N     8.9   -5.4    8.4
P    -5.1    8.1    9.4
H     7.9   10.6    2.3
H    -4.1   -2.1   12.6
H    -1.4    5.5   12.1
H    -8.5   -5.4   -8.8
I    11.2   -0.0    7.3
H    -0.9   10.1   -8.8
N     9.0   -5.3   -8.4
I    -3.8    6.0   11.4
H    -4.2  -12.7    1.8
I    -3.9   -5.9   11.5
P    -9.8   -0.1    9.3
P    -0.5    0.0   13.6
H     8.4   -6.0   -8.8
H     0.1    6.1   12.1
H    -5.3  -12.5   -0.4
H   -10.0   -4.5    8.0
H   -13.3    2.6   -0.4
N    -0.5    5.4   12.5
H    13.0   -3.5   -2.2
N    -0.4   10.8    8.4
H    13.2    3.6   -0.4
N     4.3   -2.6  -12.7
C    13.1   -2.7   -3.0
H     3.3  -13.1    1.8
H    -4.1   12.4   -4.1
H    -9.1   10.0    2.3
H     3.4   -2.4  -13.1
H     2.9   -3.0   13.1
N    -0.3   10.9   -8.4
N    -9.5   -5.3   -8.4
H     5.0  -12.7    1.8
I    12.3   -6.0   -1.1
H     5.2   -2.1   12.6
I    12.4    5.9   -1.1
