         400
 sphere cut out from bulk 
P    -0.2   -0.0    1.5
I     1.0   -2.1   -0.6
I     1.0    2.2   -0.6
I    -2.6    0.0   -0.6
P    -0.2    0.0   -2.7
I     2.3    0.2    3.6
I    -1.3   -2.1    3.6
H     0.2   -4.4    0.1
I    -1.4    2.2    3.6
H     3.5    2.9    0.7
H     0.2    4.4   -1.3
H    -4.6    1.6    0.7
H     3.5   -3.0   -1.9
H     4.6    1.6    0.7
H    -0.9   -4.6    2.2
H     3.9    1.9    2.9
H    -4.6   -1.7   -1.9
H    -4.0    3.3    0.7
C     4.4    2.6    1.0
H     4.7   -1.7   -1.9
I     2.2   -0.0   -4.8
N    -0.1   -5.3    0.4
H    -3.8    2.5    2.9
I    -1.5   -2.1   -4.8
I    -1.5    2.1   -4.8
C    -4.8    2.6    1.0
H     0.9   -5.0    2.3
H    -4.0   -3.4   -1.9
H    -1.0   -5.5    0.1
N    -0.1    5.4   -1.7
C    -0.1   -5.3    1.9
C     4.4   -2.7   -2.3
P    -0.1   -0.0    5.7
H    -1.1    5.5   -1.3
N     4.5    2.7    2.5
H    -0.9    4.6   -3.5
H     3.8   -1.9   -4.1
C    -4.8   -2.7   -2.3
N    -4.8    2.7    2.5
H     0.5   -6.1    0.1
H    -3.8   -2.5   -4.1
H     0.8    5.0   -3.5
H     4.1    3.6    2.9
H    -0.5    4.4    4.3
C    -0.1    5.3   -3.2
H     5.2    3.3    0.7
H     0.5    6.1   -1.3
N     4.4   -2.7   -3.7
H    -5.4    1.9    2.9
H     5.2   -3.4   -1.9
H    -5.8    2.9    0.7
H     4.2   -1.7    4.8
H     5.4    2.5    2.9
I     6.6    0.0   -0.6
N    -4.8   -2.7   -3.7
H    -0.4   -6.3    2.3
H    -5.8   -3.0   -1.9
H    -3.8   -3.0    4.8
H     4.1   -3.6   -4.1
H    -5.1    3.6    2.9
I    -3.5    5.9   -0.6
I    -3.4   -6.0   -0.7
P    -0.2    0.0   -6.9
H     3.7   -3.4    4.8
H     3.8    1.9   -5.5
H     0.8    5.5    4.3
H    -5.4   -1.9   -4.1
N    -0.1    5.3    4.7
H    -5.0   -1.7    4.8
H    -3.9    2.5   -5.5
H     5.4   -2.5   -4.1
H    -0.4    6.3   -3.5
C     4.5   -2.7    5.1
H    -0.8    6.1    4.3
H    -5.1   -3.6   -4.1
C    -4.8   -2.7    5.1
I     3.2    5.8    3.5
H    -0.8   -4.5   -6.2
I     3.3   -6.0    3.5
H     4.1    3.6   -5.5
N     4.4    2.7   -5.9
I    -7.0    0.2    3.6
H     5.4   -3.0    4.8
H    -5.4    1.9   -5.5
H     0.7    4.7    6.5
H     0.8   -5.3   -6.0
N    -4.8    2.7   -5.9
H     5.4    2.5   -5.5
H    -5.6   -3.4    4.8
I     1.0    2.1    7.8
C    -0.1    5.3    6.2
I     1.2   -2.1    7.8
I    -2.6   -0.2    7.8
H     3.6   -2.5    7.0
H    -1.1    5.0    6.5
I     5.8    5.9   -0.6
I     3.3    5.9   -4.8
I     2.1    8.0   -0.6
H    -4.1   -2.0    7.0
I     2.1   -8.0   -0.6
I     3.3   -5.9   -4.8
H    -5.2    3.6   -5.5
I     5.8   -6.0   -0.7
C     0.0   -5.0   -6.7
N     4.5   -2.7    6.6
I    -7.0   -0.0   -4.8
I    -8.2   -2.1   -0.6
I    -8.3    2.2   -0.6
N    -4.7   -2.7    6.6
H     0.5   -4.4   -7.5
I     7.8    2.2    3.6
H     5.1   -2.0    7.0
I    -2.3    7.8    3.6
I     7.9   -2.1    3.6
H     3.4    3.0   -7.7
C     4.4    2.7   -7.4
H    -4.4   -3.6    7.0
H     0.0    6.3    6.5
I    -6.0    5.8    3.5
H    -4.5    1.7   -7.7
I    -5.9   -6.0    3.5
P     9.0   -0.0    1.5
H     4.7    1.7   -7.7
C    -4.8    2.7   -7.4
H     4.8   -3.6    7.0
I    -2.3   -8.2    3.6
I     1.2   -2.1   -9.0
I     0.9    2.1   -9.0
P     4.5    8.0    1.5
H    -4.1    3.4   -7.7
P     4.5   -8.1    1.5
I     7.8    2.1   -4.8
I     7.8   -2.1   -4.8
H    -5.7   -2.5    7.0
P     9.0    0.0   -2.7
I    -2.6   -0.2   -9.0
P    -4.7    8.0    1.5
P    -4.7   -8.1    1.5
P    -9.4   -0.0    1.5
H    -0.9   -6.9   -6.6
P     4.6    8.0   -2.8
I    -5.9    5.9   -4.8
I    -5.9   -5.9   -4.8
P     4.6   -8.1   -2.8
N    -0.5   -6.2   -7.4
P    -4.7    8.0   -2.8
I    -2.3    8.0   -4.9
P    -4.7   -8.1   -2.8
I    -2.3   -8.1   -4.9
H     8.3   -4.6    2.2
P    -9.5    0.0   -2.7
H     8.2   -5.5    0.1
H     5.2    3.4   -7.7
P    -0.1    0.0    9.9
H     8.2    5.5   -1.3
H    -9.0   -4.4    0.1
H     0.5   10.0    0.1
H    -8.4   -5.0    2.3
H    -0.4    9.8    2.3
H     0.5  -10.0   -1.3
H    -1.3   -6.0   -8.0
H    -5.8    3.0   -7.7
H    -9.0    4.4   -1.3
H     8.3    4.6   -3.5
H     3.5    3.0    9.1
I     6.7   -0.2    7.8
H    -4.5    1.7    9.1
H     0.6   -4.4    9.3
H    -0.4   -9.8   -3.5
H    -8.4    5.0   -3.5
I    -3.5   -5.9    7.8
H     0.2   -6.8   -7.9
H     4.7    1.7    9.1
I    -3.6    6.0    7.8
I    10.2    2.2   -0.6
I    10.2   -2.1   -0.6
H     9.5   -4.4    0.1
H     9.5    4.4   -1.3
H    -4.0    3.4    9.1
N     9.1   -5.3    0.4
H    -8.7   -6.1    0.1
H    -1.0   10.6    0.1
I    -3.4   10.1   -0.7
H    -1.1  -10.6   -1.3
N     9.1    5.4   -1.7
H     8.8    4.4    4.3
C     9.1   -5.3    1.9
H    -8.7    6.1   -1.3
H     3.5   -2.6   -9.8
H    -1.2   -6.0    8.8
N    -9.3   -5.3    0.4
I    -3.5  -10.2   -0.6
N    -0.1   10.7    0.4
P     9.1   -0.0    5.7
P     4.5    8.0    5.7
I    -7.2    8.0   -0.6
I    -7.2   -8.0   -0.6
C     4.5    2.7    9.5
P     4.4   -8.1    5.7
N    -0.1  -10.7   -1.7
H    -4.2   -2.0   -9.9
N    -9.3    5.4   -1.7
P    -4.8    8.0    5.7
C    -4.7    2.7    9.5
H    -8.4    5.5    4.3
C    -9.4   -5.3    1.9
C    -0.1   10.8    1.9
H    -0.8  -10.0    4.3
P    -9.3   -0.0    5.7
P    -4.8   -8.1    5.7
C     9.1    5.3   -3.2
I     6.9    7.8    3.6
H     5.2    3.4    9.1
H     8.9   -6.3    2.3
P    -0.2   -0.0  -11.1
I     3.3   10.1    3.5
H    -5.7    3.0    9.1
I     6.6   -0.2   -9.0
H     0.3   -6.7    8.9
C    -0.1  -10.8   -3.2
C    -9.4    5.3   -3.2
H     5.1   -2.0   -9.9
C     0.1   -5.0   10.1
H     8.5    6.1    4.3
I     3.2  -10.2    3.5
I     5.7   -5.9    7.8
H     0.6    4.6  -10.3
I     5.7    6.0    7.8
I   -10.5   -2.1    3.6
I     6.9   -8.2    3.6
H   -10.1   -4.6    2.2
N    -0.5   -6.2    9.5
H     0.9   11.1    2.3
I     2.0   -8.0    7.8
P     9.0    0.0   -6.9
H    -0.9    9.2   -6.6
I    -8.0   -2.1    7.8
I    -3.6   -5.9   -9.1
I     2.0    8.1    7.8
H    -4.5   -3.7   -9.8
H     8.5   -4.5   -6.2
I    -3.6    6.0   -9.1
I   -10.6    2.2    3.6
H     8.9    6.3   -3.5
P     4.4    8.0   -7.0
N     4.4   -2.7  -10.2
H    -1.2    4.9  -10.3
H     0.8  -10.6    4.3
H    10.1   -5.0    2.3
H    -9.7    4.4    4.3
H     9.8   -6.1    0.1
H    -0.7   -4.5   10.6
N     9.1    5.3    4.7
H     4.8   -3.7   -9.8
I    -8.2    2.1    7.8
P     4.4   -8.1   -7.0
H     8.1    5.0    6.5
H     9.8    6.1   -1.3
N    -4.8   -2.7  -10.2
H    -8.4   -5.3   -6.0
P    -4.8    8.0   -7.0
I     5.8   10.1   -0.7
H     0.8  -11.1   -3.5
H   -10.3   -5.5    0.1
H    -5.7   -2.6   -9.8
H     0.3   11.7    0.1
H   -10.1    4.6   -3.5
I     6.9    8.0   -4.9
I     5.8  -10.2   -0.6
P    -9.4    0.0   -6.9
H     0.2  -11.6   -1.3
H    -9.6   -6.3    2.3
I     6.9   -8.1   -4.9
P    -4.8   -8.1   -7.0
H     0.0   -9.7    6.5
I     3.3  -10.2   -4.8
H    -0.9   11.5    2.2
I     3.3   10.2   -4.8
H    -8.6    4.7    6.5
N    -9.4    5.3    4.7
N    -0.1  -10.8    4.7
H   -10.3    5.5   -1.3
H    10.1    5.0   -3.5
I   -11.8    0.0   -0.6
C    -0.2    5.3  -10.6
I   -10.7   -2.1   -4.8
I   -10.7    2.1   -4.8
H    -0.9  -11.5   -3.5
H    -9.6    6.3   -3.5
I    11.5    0.2    3.6
H    -0.0    6.3  -10.3
H     0.9   -5.3   10.8
H     3.8    1.9   11.3
N     4.5    2.7   11.0
I    -5.9   10.1    3.5
I     5.6   -5.9   -9.1
I     5.6    6.0   -9.1
H    -3.8    2.5   11.3
H     0.2    9.3   -7.9
C     9.1    5.3    6.2
I     2.0   -8.0   -9.0
H    10.1    5.5    4.3
N    -4.8    2.7   11.0
I    -8.1   -2.1   -9.0
I     2.3    0.0   12.0
I     2.0    8.1   -9.0
I    -1.4    2.1   12.0
I    -1.4   -2.1   12.0
N    -0.5    9.8   -7.4
H    -0.8   -6.9   10.2
H    -8.7   -4.4   -7.5
H     0.8   10.8   -6.0
I    -6.0  -10.2    3.5
C    -0.1  -10.8    6.2
C    -9.4    5.3    6.2
I    -8.3    2.1   -9.0
I    11.5   -0.0   -4.8
C    -9.2   -5.0   -6.7
H   -10.0    6.1    4.3
H    -0.5  -11.7    4.3
C     9.3   -5.0   -6.7
H     4.1    3.6   11.3
H   -10.0   -4.5   -6.2
H     8.3   -6.9   -6.6
H    -5.4    1.9   11.3
I    -5.9   10.2   -4.8
I    -5.9  -10.2   -4.8
H     9.9    4.7    6.5
H     7.9   -6.0   -8.0
C     4.4   -2.7  -11.7
H     5.4    2.5   11.3
H    10.0   -5.3   -6.0
H     4.2   -1.7  -12.0
H     0.3    9.3    8.9
H    -5.1    3.6   11.3
H    -9.2    6.3    6.5
H    -1.3   10.1   -8.0
H    -1.1  -11.1    6.5
C     0.0   11.1   -6.7
C    -4.8   -2.7  -11.7
H     9.3    6.3    6.5
N     8.7   -6.2   -7.4
H     3.6   -3.4  -12.0
H    12.7    2.9    0.7
H    -3.9   -3.1  -12.1
I    10.2    2.1    7.8
H     9.7   -4.4   -7.5
H    -5.1   -1.7  -12.0
H     0.7  -11.4    6.5
H    12.7   -3.0   -1.9
H    -0.8   11.6   -6.2
H   -10.3    5.0    6.5
I    -3.6  -10.1    7.8
N    -0.2    5.3  -12.1
H    -8.7   10.0    0.1
I    10.5   -2.1    7.8
H    -0.5    4.4  -12.5
I    -3.5   10.2    7.8
I    -7.2   -8.0    7.8
H    -8.7  -10.0   -1.3
H     8.0   -6.0    8.8
I    -7.2    8.1    7.8
H     8.2   10.6    0.1
H     8.9    9.8    2.3
H    -4.0  -12.8    0.7
H     8.2  -10.6   -1.3
P     9.1    0.0    9.9
I     2.2    0.1  -13.3
H     3.9   -1.9   12.7
I    -1.4   -2.1  -13.2
H    -4.0   12.7   -1.9
P     4.5    8.0    9.9
H    -8.7   -4.4    9.3
H     4.1  -12.5    2.9
H    -1.2   10.1    8.8
I    -1.5    2.2  -13.2
H    -3.8   -2.5   12.7
P     4.5   -8.1    9.9
H    13.1    1.9    2.9
H     5.4   -3.1  -12.1
H   -13.0    2.5    2.9
P    -4.8    8.0    9.9
H     3.5  -13.1    0.7
P    -4.8   -8.1    9.9
P    -9.4    0.0    9.9
H     8.9   -9.8   -3.5
H     3.5   13.1   -1.9
H     0.8    5.5  -12.5
H   -13.3    3.3    0.7
N    -0.5    9.9    9.5
H    -5.6   -3.4  -12.0
N    -9.8   -6.2   -7.4
I    10.2    2.1   -9.0
H     4.1   12.5   -4.1
H    -9.0   -6.8   -7.9
H    -0.8    9.2   10.2
H    13.0   -1.9   -4.1
H    -5.1  -12.5    2.9
H   -13.2   -3.4   -1.9
I     3.4   -5.9   12.0
