         400
 sphere cut out from bulk 
P    -0.2    0.0   -0.9
I     1.1   -2.1    1.2
I     0.9    2.2    1.3
I    -2.6   -0.1    1.2
P    -0.2   -0.0    3.3
I     2.2    0.2   -2.9
I    -1.3   -2.1   -3.0
I    -1.6    2.1   -2.9
H     3.0   -3.1    0.0
H     0.1    4.4    0.6
H    -4.5   -1.6   -0.4
H     4.0   -1.9   -1.9
H    -3.8   -2.7   -1.6
H    -0.9    4.7   -1.7
P    -0.2    0.1   -5.1
H     3.4    2.9    2.5
H     4.9   -1.6   -0.4
N     3.9   -3.4   -0.5
H     0.4   -4.7    2.4
C     4.6   -2.3   -1.1
N    -0.2    5.3    0.2
C    -4.7   -2.3   -1.1
H     0.8    5.1   -1.6
H     4.7    1.6    2.5
H    -4.7    1.6    2.5
C    -0.2    5.4   -1.3
H     3.5   -4.1   -1.2
H     3.8    2.0   -3.6
H    -1.2    5.5    0.6
C     4.4    2.6    2.8
H    -4.2    3.3    2.5
H    -3.9    2.5   -3.6
I     2.2    0.1    5.5
H     4.5   -3.9    0.2
I    -1.4   -2.2    5.4
I    -1.6    2.0    5.4
H    -5.4   -1.9   -1.9
H    -1.1   -4.3   -4.2
H     0.4    6.1    0.6
C    -4.9    2.6    2.8
H    -1.2   -4.4    4.3
H    -4.9   -3.9    0.2
H     3.8    1.8    4.7
C     0.2   -5.5    3.1
H     5.5   -2.7   -1.6
H    -1.9   -5.4    3.0
N    -5.5   -3.4   -0.5
N     4.5    2.7   -4.0
H     4.1    3.6   -3.6
N    -1.1   -5.3    3.7
H    -0.5    6.4   -1.6
H    -4.0    2.4    4.7
H     5.2    3.3    2.5
N     4.4    2.6    4.3
H     1.0   -5.3    3.9
I     6.7   -0.1    1.2
N    -4.9    2.7   -4.0
H    -5.5    2.0   -3.6
H     0.3   -6.4    2.7
H     5.4    2.5   -3.6
H     1.1   -5.2   -4.6
H    -6.3   -3.1    0.0
H    -5.9    2.9    2.5
N    -5.0    2.6    4.3
N    -1.0   -5.2   -4.7
I    -3.5    6.0    1.3
H     4.1    3.5    4.7
I    -3.8   -6.0    1.4
H    -5.8   -4.1   -1.2
H    -5.2    3.6   -3.6
H    -1.2   -6.0   -4.0
I     3.4    5.9   -2.9
H     3.5    3.0   -5.8
I     3.3   -6.1   -2.8
I     1.2   -1.9   -7.2
H    -5.6    1.8    4.7
C     0.3   -5.3   -5.3
H     5.4    2.4    4.7
I     0.9    2.3   -7.1
P    -0.4   -0.1    7.5
H     0.4   -4.5   -6.1
C     4.5    2.8   -5.5
H    -1.3   -6.1    4.4
H    -4.6    1.8   -5.8
I    -2.6   -0.0   -7.2
H     4.7    1.8   -5.8
H    -1.7   -5.3   -5.4
I    -7.2    0.2   -2.9
C    -4.9    2.8   -5.5
H    -5.3    3.5    4.7
H    -4.1    3.5   -5.8
H     3.6   -1.3    7.1
I     2.0    7.8    1.3
H    -1.1    4.6    6.7
H    -4.0   -3.0    6.6
I     5.6   -6.0    1.4
I     5.8    6.0    1.3
H     0.7    5.1    6.8
H     5.2    3.5   -5.8
I     7.8    2.1   -2.9
H     0.4   -6.3   -5.8
H     3.7   -3.7    6.8
I    -8.3   -2.1    1.2
I     3.3    5.7    5.5
I     2.1   -8.4    1.3
I    -2.3   -8.0   -2.9
H    -5.9    3.0   -5.8
I    -8.5    2.2    1.3
I    -5.9    5.9   -2.9
I     8.1   -2.1   -3.0
C    -0.3    5.3    7.1
I     3.2   -6.3    5.5
H     5.3   -3.0    6.6
I    -6.1   -6.1   -2.8
N     4.0   -2.0    7.9
I    -2.4    8.2   -2.9
H     0.2    4.6   -7.8
I    -7.2    0.1    5.5
H     3.4   -2.0   -8.3
P     9.1    0.0   -0.9
C     4.5   -3.2    7.3
P     4.5    8.0   -0.8
H    -5.7   -1.3    7.1
P    -0.2    0.1   -9.3
H    -0.6    6.4    6.8
C    -4.8   -3.2    7.3
H     3.2   -2.2    8.5
P    -4.8    8.0   -0.8
P     4.6   -8.2   -0.8
P    -4.8   -8.2   -0.8
H    -4.4   -1.3   -8.4
H    -5.6   -3.7    6.8
I     7.7    2.0    5.4
P    -9.6    0.0   -0.9
P     4.4    7.9    3.5
H     7.5   -5.4    3.0
P     9.1   -0.0    3.3
H    -4.6   -1.4    8.4
H    -1.1    5.7   -7.8
N    -5.4   -2.0    7.9
H     4.7   -1.4    8.4
H     8.4    4.7   -1.7
H     4.9   -1.3   -8.4
I    -3.6   -5.9   -7.0
I     6.7   -0.0   -7.2
I     7.9   -2.2    5.4
N    -0.2    5.5   -8.2
H     8.2    5.5    0.6
I     0.9   -2.1    9.6
I     0.7    2.1    9.7
H    -0.4   -9.8   -1.6
I    -3.5    6.1   -7.1
P    -5.0    7.9    3.5
H    -0.0    4.4    9.0
I    -6.0    5.7    5.5
H     0.5    6.2   -7.8
I    -2.9   -0.2    9.6
N     4.2   -1.8   -8.9
P     4.5   -8.3    3.5
H    -4.4   -3.8    8.1
I    -2.5   -8.1    5.5
N    -0.4    5.3    8.6
H    -8.6    5.1   -1.6
H     0.2    9.8    2.7
H     0.5  -10.1    0.6
I    -2.6    8.1    5.5
P    -9.6   -0.0    3.3
H     8.1   -4.4    4.3
H     8.3   -4.3   -4.2
P    -4.9   -8.3    3.5
H     4.9   -3.8    8.1
H    -9.3    4.4    0.6
H    -4.2   -3.6   -8.7
H    -6.0   -2.0   -8.3
I    -6.2   -6.3    5.5
H    -9.0   -4.7    2.4
P     9.1    0.1   -5.1
N    -5.2   -1.8   -8.9
H     3.8   -1.1   -9.7
H     9.5    4.4    0.6
P     4.5    8.1   -4.9
N     8.2   -5.3    3.7
I    10.2    2.2    1.3
P     4.6   -8.1   -4.9
H    -1.3    5.5    9.0
N     9.1    5.3    0.2
P    -4.9    8.1   -4.9
P    -4.8   -8.1   -4.9
C     9.2    5.4   -1.3
H    -8.4   -5.3    3.9
H     5.1   -3.6   -8.7
H     7.6   -5.3   -5.4
I    10.5   -2.1    1.2
H    -6.2   -2.2    8.5
H    -1.1  -10.7    0.6
H    -8.2   -5.2   -4.6
I    -7.3    7.8    1.3
I     5.7   -5.9   -7.0
P    -9.6    0.1   -5.1
I    -3.4  -10.2    1.3
H    -9.0    6.1    0.6
I     2.1    7.9   -7.1
H     0.3    6.0    9.0
N    -0.1  -10.9    0.2
C    -0.1  -10.8   -1.3
N     8.4   -5.2   -4.7
H     8.2   -6.0   -4.0
C    -4.6   -3.0   -9.5
N    -9.6    5.3    0.2
I     3.2   10.1   -2.8
I     7.0   -8.0   -2.9
H     8.0   -6.1    4.4
I    -3.9   10.2    1.4
H    -1.2   10.2   -4.0
I     5.9    6.1   -7.1
C     4.8   -3.0   -9.5
H     9.7   -4.7    2.4
I    -8.2   -1.9   -7.2
C    -9.6    5.4   -1.3
H     8.9    6.4   -1.6
I     2.2   -8.3   -7.1
C    -9.1   -5.5    3.1
H    -1.4   10.1    4.4
I     6.9    8.2   -2.9
I    -7.2   -8.4    1.3
C    -0.1    5.5   -9.7
H    -0.8    4.8  -10.1
H    -5.5   -1.1   -9.7
C     0.1   10.7    3.1
H    -3.8   -2.8  -10.2
H     0.9  -11.1   -1.6
I     3.5  -10.3   -2.9
I   -10.7   -2.1   -3.0
I    -8.5    2.3   -7.1
H     3.9   -3.5  -10.0
H     0.9    5.3  -10.0
H    -2.0   10.8    3.0
H    -9.1   -6.4    2.7
H   -10.3    4.7   -1.7
C     9.6   -5.5    3.1
H    10.2    5.1   -1.6
I     2.4    0.3  -11.2
H     0.3    9.9   -5.8
H     9.8    6.1    0.6
I   -10.9    2.1   -2.9
N    -1.2   10.9    3.7
H     0.9   10.9    3.9
I     6.5   -0.2    9.6
I    -1.2   -2.0  -11.4
H     8.3    4.6    6.7
I    -1.4    2.2  -11.4
H    -0.8  -11.5   -1.7
H    -8.9   -4.5   -6.1
I     5.5   10.2    1.4
P     8.9   -0.1    7.5
H     0.2   -4.7   10.7
P    -0.4   -0.1   11.7
C    -9.0   -5.3   -5.3
I     3.1    9.9    5.5
H     0.3   11.5    2.4
H     0.2  -11.8    0.6
H     3.3    2.8   11.0
H    -9.8    6.4   -1.6
P     4.4    7.9    7.6
I     5.9  -10.2    1.3
H   -10.5    5.5    0.6
H     9.7   -6.4    2.7
H    -5.4   -3.5  -10.0
H     1.0   11.0   -4.6
H     5.6   -2.8  -10.2
I    11.6    0.2   -2.9
H     4.5    1.6   10.9
I    -3.7    5.9    9.7
H    -0.4    6.5  -10.0
H    -0.5   -9.8    6.8
I     6.8    8.1    5.5
I     6.9   -8.1    5.5
N    -1.1   11.0   -4.7
H   -10.5   -4.3   -4.2
I   -12.0   -0.1    1.2
H    -4.8    1.6   10.9
P     4.4   -8.2    7.6
P    -5.0    7.9    7.6
C     0.3   10.9   -5.3
H    -8.7    5.1    6.8
I    -6.2   10.1   -2.8
I    -3.8   -6.1    9.8
I    -5.8  -10.3   -2.9
H   -10.6   -4.4    4.3
I   -10.8   -2.2    5.4
H    10.3   -5.3    3.9
P    -4.9   -8.2    7.6
H    -4.4    3.3   11.0
C     9.7   -5.3   -5.3
I     3.4  -10.5    5.5
H    -1.8   10.9   -5.4
P    -9.8   -0.1    7.5
N   -10.5   -5.3    3.7
C     4.3    2.6   11.3
H     9.8   -4.5   -6.1
H    -8.9   -6.3   -5.8
I   -11.0    2.0    5.4
N   -10.4   -5.2   -4.7
H     5.0    3.3   11.0
H    10.5   -5.2   -4.6
I     1.9    7.8    9.7
H    -1.3   11.8    4.3
H     3.5   12.1   -1.2
H    -1.2   11.9   -4.2
H     0.6  -10.0   -7.8
C     9.0    5.3    7.1
C    -5.1    2.6   11.3
H     8.2    5.7   -7.8
I    10.3    2.3   -7.1
C     0.1   -5.5   11.5
I     5.7    5.9    9.7
H     0.2   -6.5   11.0
H   -10.5   -6.0   -4.0
H    -2.0   -5.4   11.4
H    12.4   -3.1    0.0
I    11.5    0.1    5.5
I    -3.4  -10.1   -7.1
H     8.8    6.4    6.8
H   -11.2   -5.4    3.0
I     5.5   -6.1    9.8
I    10.5   -1.9   -7.2
I    -7.2    7.9   -7.1
H    -6.1    2.8   11.0
H     4.0    2.0  -12.1
H    -9.2    4.6   -7.8
H    -3.8    2.6  -12.1
I    -3.7   10.3   -7.0
I    -8.4   -2.1    9.6
C    -0.2  -10.9    7.1
I    -6.3    9.9    5.5
H     9.8   -6.3   -5.8
I    -7.1   -8.3   -7.1
H     4.4   12.2    0.2
P     9.2    0.1   -9.3
I     2.0   -8.4    9.7
H     0.8  -11.1    6.8
P     4.7   -8.1   -9.1
P    -4.7   -8.1   -9.1
H   -10.7   -6.1    4.4
P     4.6    8.1   -9.1
H    10.0    5.1    6.8
P    -4.8    8.1   -9.1
H     9.5    4.6   -7.8
C    -9.7    5.3    7.1
I    -8.7    2.1    9.7
H    -1.0  -10.5   -7.8
H     0.3   11.7   -6.1
H     8.0    5.5    9.0
I     3.6    5.9  -11.3
H    -5.0   12.2    0.2
H   -10.4    4.6    6.7
I     3.4   -6.1  -11.3
I    -5.9  -10.5    5.5
I    -7.0    0.3  -11.2
H    -1.0   -4.2  -12.5
P    -9.6    0.1   -9.3
N    -1.2   -5.4   12.1
N     3.8   12.8   -0.5
H     4.3    3.7  -12.1
H    -8.9    6.2   -7.8
H    12.8    2.9    2.5
H     9.0   -9.8   -1.6
H    -5.4    2.0  -12.1
H     0.9   -5.4   12.2
H    -1.0  -11.6    6.7
H   -11.1   -5.3   -5.4
H     2.9   13.1    0.0
H    -8.9  -10.1    0.6
P    -0.0    0.2  -13.5
H     7.4   10.8    3.0
N    -0.1  -10.7   -8.2
H    -1.3   -4.5   12.6
H    -5.9   12.1   -1.2
N     9.2    5.5   -8.2
N     9.0    5.3    8.6
H     8.3  -10.7    0.6
H     5.6    2.6  -12.1
N     4.6    2.8  -12.5
H   -13.2   -2.7   -1.6
H     0.3  -10.2    9.0
H     7.9   10.1    4.4
H    13.3   -1.9   -1.9
H    12.9   -4.1   -1.2
H    -5.1    3.7  -12.1
N    -4.7    2.8  -12.5
H    -9.9    6.4    6.8
H     8.1   10.2   -4.0
I     5.6   10.3   -7.0
H     9.3    4.4    9.0
H    -9.2    9.8    2.7
N    13.2   -3.4   -0.5
N    -9.5    5.5   -8.2
I     6.0  -10.1   -7.1
H    -9.4    4.4    9.0
N     4.3    2.5   12.8
