         400
 sphere cut out from bulk 
I     0.9    0.6    0.7
P    -0.9   -2.0    0.8
H    -1.2    2.1   -1.2
H    -0.9    1.2   -2.7
C    -1.2    2.2   -2.3
I    -0.9   -2.1   -2.5
H     3.1   -1.0   -1.4
I    -3.6   -0.3    0.8
H     0.8    2.9   -2.3
H    -0.6    3.0    2.5
H     2.2   -1.7   -2.8
N    -0.2    3.2   -2.7
C     3.1   -1.8   -2.2
H    -1.0    1.1    4.0
H    -2.2    2.5   -2.7
I     1.7   -3.8    0.7
H     2.0   -1.6    3.6
H     3.3   -1.4    2.5
P     3.6    2.5    0.7
I    -0.6   -2.2    4.0
H     3.2   -2.8   -1.8
H     0.7    2.8    3.6
N    -0.3    3.1    3.5
H    -0.4    4.1   -2.3
H    -3.7   -1.6   -2.5
N     3.0   -1.4    3.5
I     3.4    2.4   -2.5
H    -0.1    3.3   -3.7
C    -1.2    2.1    4.3
H     3.1   -0.4    3.8
I    -2.6    4.2    0.8
H    -2.2    2.4    4.2
H    -0.4   -4.8   -2.3
I     5.3   -0.3    0.8
I     1.7    5.1    0.7
I    -2.7   -4.7    0.8
N     4.3   -1.6   -3.0
H     4.3   -0.6   -3.5
H    -0.5    4.1    3.8
I     3.3    2.3    3.9
N    -4.6   -1.6   -3.0
H    -4.6   -0.6   -3.5
H    -0.9    2.2    5.4
P    -5.3    2.5    0.7
H     5.2   -1.6   -2.5
I     1.7   -0.1   -5.8
H    -5.8   -1.0   -1.4
P    -0.9   -1.9   -5.7
H    -0.5   -4.9    3.8
C     3.8   -2.3    4.3
I    -2.7    0.7   -5.5
H     4.4   -2.2   -3.8
H    -4.1   -2.1    4.3
H     3.6   -3.4    4.0
H    -5.6   -1.4    2.5
N    -0.2   -5.7   -2.7
H    -4.5   -2.2   -3.8
H    -0.6   -5.9    2.5
C    -5.8   -1.8   -2.2
H     0.8   -6.0   -2.3
I    -5.5    2.4   -2.5
H    -5.7   -2.8   -1.8
H    -0.1   -5.6   -3.7
H     4.8   -2.1    4.3
H     3.4   -2.3    5.4
N    -0.3   -5.8    3.5
H    -5.7   -0.4    3.8
P    -0.9    6.9    0.8
N    -5.9   -1.4    3.5
H    -1.3   -6.8   -1.2
H     0.7   -6.1    3.6
C    -5.1   -2.3    4.3
H     3.2    6.1   -1.8
C    -1.2   -6.7   -2.3
P     3.6    2.5   -5.7
I    -5.6    2.3    3.9
I    -0.9    6.8   -2.5
H    -2.2   -6.4   -2.7
I     0.9    0.6    7.3
I     1.0    4.4   -5.8
P     3.6   -6.4    0.7
H    -5.3   -3.4    4.0
H    -6.7   -1.7   -2.8
I     0.9   -4.6   -5.8
P    -0.9   -2.1    7.2
I     6.2    4.2    0.8
I    -3.5   -3.7   -5.7
H     6.7    2.5   -2.7
H     3.6    5.6    4.0
I     3.4   -6.5   -2.5
I    -0.6    6.8    4.0
I     6.2   -4.7    0.8
I    -3.5   -0.2    7.1
H    -6.9   -1.6    3.6
H    -1.0    2.3   -7.5
H    -5.5   -2.3    5.4
H     7.6    2.1   -1.2
H    -2.2   -6.5    4.2
H     2.2    7.2   -2.8
C     3.1    7.1   -2.2
I    -8.0    0.6    0.7
C    -1.2   -6.8    4.3
I    -7.2   -3.8    0.7
P    -5.3    2.5   -5.7
H    -0.9   -7.7   -2.7
P     7.9   -2.0    0.8
H     6.7    2.4    4.2
I     6.2    0.7   -5.5
C     7.7    2.2   -2.3
I     3.3   -6.6    3.9
P     3.6    2.4    7.2
I     0.8   -8.3    0.7
H     2.0    7.3    3.6
P    -5.3   -6.4    0.7
I    -3.5    5.2   -5.7
H     8.0    1.2   -2.7
H    -3.7    7.3   -2.5
H    -5.7    6.1   -1.8
I     1.7   -4.0    7.4
H     3.1    7.9   -1.4
H     3.3    7.5    2.5
I     7.9   -2.1   -2.5
H     3.6   -2.1   -7.5
H    -0.9   -6.7    5.4
H    -5.3    5.6    4.0
I     5.3   -3.7   -5.7
I    -2.7    4.2    7.1
C     3.8    6.6    4.3
I    -7.1    5.1    0.7
H    -1.0   -7.8    4.0
N     3.0    7.5    3.5
I    -5.5   -6.5   -2.5
H     4.4    6.7   -3.8
I     5.4   -0.2    7.1
C    -0.6    2.3   -8.6
H    -4.5    6.7   -3.8
H     7.9    1.1    4.0
H    -8.1    2.9   -2.3
I    -2.8   -4.7    7.1
H    -4.0    6.8    4.3
H     0.4    2.5   -8.7
I     1.7    5.0    7.4
N     4.3    7.4   -3.0
H    -0.8    1.2   -9.0
P    -0.8    7.0   -5.7
C     7.7    2.1    4.3
N    -4.5    7.4   -3.0
H     8.3    3.0    2.5
H     3.4    6.6    5.4
H     2.2   -1.9   -8.7
I    -7.2   -0.1   -5.8
P    -5.3    2.4    7.2
I    -1.1   -2.0   -9.0
P     3.6   -6.4   -5.7
H     5.2    7.3   -2.5
H    -0.1    2.1    9.1
I     5.4    5.2   -5.7
H     4.8    6.8    4.3
C    -5.1    6.6    4.3
I    -3.6    8.6    0.8
H    -8.2    2.8    3.6
I     8.2   -2.2    4.0
C    -5.8    7.1   -2.2
C     3.3   -2.2   -8.6
H    -5.3   -2.1   -7.5
I    -5.6   -6.6    3.9
I     0.9    9.5    0.7
N     8.7    3.2   -2.7
H     6.7   -6.4   -2.7
H    -5.6    7.5    2.5
H     8.5    4.1   -2.3
N     8.6    3.1    3.5
I     9.7    0.6    0.7
H     3.2    8.5    3.8
H    -5.8    7.9   -1.4
H     8.0    2.2    5.4
I    -3.6   -9.2    0.8
H     4.0   -0.3   -9.1
P    -0.9    6.8    7.2
N    -9.0    3.2   -2.7
H     4.3    8.3   -3.5
H     8.5   -4.8   -2.3
N    -1.4    3.2   -9.4
I     3.8    2.5   -8.9
H    -1.0   -6.6   -7.5
P     8.0   -1.9   -5.7
P    -9.8   -2.0    0.8
H    -1.3    4.2   -9.1
P    -5.3   -6.4   -5.7
H     8.4    4.1    3.8
H    -4.6    8.3   -3.5
H     8.8    3.3   -3.7
H     3.5   -3.2   -8.9
H    -5.4    6.6    5.4
H    -2.4    3.0   -9.3
H    -0.2    3.7    9.4
H    -3.7   -1.5   -9.3
I     5.3    8.6    0.8
N    -5.9    7.5    3.5
H     6.6   -6.5    4.2
H    -6.6    7.2   -2.8
H    -9.8    1.2   -2.7
H    -9.0    3.3   -3.7
N    -0.1    2.8    9.9
H    -9.5    3.0    2.5
H     4.3   -1.3    9.2
H     7.6   -6.8   -1.2
I     6.1    4.2    7.1
H    -1.3   -4.7   -9.1
I    -2.7   -8.3   -5.5
P     3.5   -6.5    7.2
N    -9.2    3.1    3.5
H    -4.9   -0.3   -9.1
N     4.1   -1.2   -9.4
H    -8.1   -6.0   -2.3
I    -9.8   -2.1   -2.5
H     9.7    2.9   -2.3
H    -4.6   -1.3    9.2
H   -10.1    2.1   -1.2
H    -9.3    4.1   -2.3
H     8.4   -4.9    3.8
C     7.7   -6.7   -2.3
H     8.3   -5.9    2.5
C    -5.6   -2.2   -8.6
I     6.1   -4.7    7.1
H     3.1  -10.0   -1.4
H    -0.9   10.1   -2.7
H     3.1   -9.3    3.8
I    -9.5   -2.2    4.0
C   -10.1    2.2   -2.3
P     8.0    6.9    0.8
I    -5.0    2.5   -8.9
N    -4.7   -1.2   -9.4
I     5.2   -9.2    0.8
H     9.6    2.8    3.6
H    -2.2    2.6   10.1
H     2.3   -2.1   10.2
H    -6.9    7.3    3.6
I    -1.1   -2.2   10.4
I     1.7    8.8   -5.8
H    -9.9    1.1    4.0
H    -9.3   -4.8   -2.3
H     5.1   -1.5   -9.3
I     8.0    6.8   -2.5
N     8.7   -5.7   -2.7
I    -7.9    4.4   -5.8
H     0.7    2.7   10.4
H     0.4   -6.4   -8.7
H    -0.2   -5.2    9.4
H     3.6    6.8   -7.5
I    -8.0    0.6    7.3
H    -1.0   10.0    4.0
H    -8.2   -6.1    3.6
I     1.7   -9.0   -5.8
I    -8.0   -4.6   -5.8
C    -0.7   -6.7   -8.6
H    -9.3    4.1    3.8
N     8.5   -5.8    3.5
H    -1.1    3.2  -10.4
H    -5.4   -3.2   -8.9
P     8.0   -2.1    7.2
H    -5.7    8.5    3.8
P    -1.0  -10.9    0.8
H     4.3   -9.5   -3.5
N    -9.1   -5.7   -2.7
I    -7.2   -4.0    7.4
P    -5.3   -6.5    7.2
H     8.8   -5.6   -3.7
N    -1.4   -5.7   -9.4
C    -1.4    2.5   10.7
I     0.9   -8.3    7.3
H     3.3  -10.3    2.5
C     7.7   -6.8    4.3
H    -6.6   -1.9   -8.7
H    -4.6   -9.5   -3.5
C   -10.1    2.1    4.3
H    -1.2   11.0   -1.2
H     7.9    2.3   -7.5
H     3.5    5.7   -8.9
H     3.9   -1.3  -10.4
N     4.2   -1.4   10.2
H     2.2  -10.6   -2.8
H    -9.0   -5.6   -3.7
H    -9.4   -4.9    3.8
I     3.5    2.2   10.4
H     1.9  -10.5    3.6
N     3.0  -10.3    3.5
H    -1.3    1.5   11.1
I    10.6   -3.8    0.7
H     3.5   -3.4   10.2
H    -2.5   -5.9   -9.3
I    -1.0  -11.0   -2.5
N    -4.6   -1.4   10.2
H    -3.7   -1.7   10.6
C     3.1  -10.7   -2.2
H     4.0   -0.5   10.6
C     3.2   -2.4   10.6
I    -2.7    9.6   -5.5
H    -9.8    2.2    5.4
H    -0.1   -6.8    9.1
C    -1.2   11.1   -2.3
I    -1.1    6.9   -9.0
I     8.3    6.8    4.0
H     8.0   -7.7   -2.7
C     3.3    6.7   -8.6
H     2.3    7.0   -8.7
I    -7.2    5.0    7.4
H    -3.7  -10.5   -2.5
H    -9.5   -5.9    2.5
H    -5.3    6.8   -7.5
N    -9.2   -5.8    3.5
P    -9.7   -1.9   -5.7
H    10.8   -1.6    3.6
I    -8.0   -8.3    0.7
H     9.6   -6.0   -2.3
H    11.1   -1.7   -2.8
H    -5.8   -9.3    3.8
H    -5.8  -10.0   -1.4
H    -5.0   -1.3  -10.4
N    -0.2   -6.2    9.9
H   -11.0    2.5   -2.7
I     3.8   -6.5   -8.9
I     6.1   -8.3   -5.5
H    -4.9   -0.5   10.6
H     8.0   -6.7    5.4
N     4.3  -10.5   -3.0
I    -3.5    8.7    7.1
H     6.4    3.0   -9.3
H     7.9   -7.8    4.0
I    -0.7  -11.1    4.0
I    10.6    5.1    0.7
H    -0.9   -7.7   -9.0
N    -4.6  -10.5   -3.0
H     9.5   -6.1    3.6
H    -2.1   11.4   -2.7
H    -5.4    5.7   -8.9
C    -1.1   11.0    4.3
H    -1.1   -5.7  -10.4
H     5.2   -1.7   10.6
P     3.6   11.4    0.7
I     0.9    9.5    7.3
I    -5.4    2.2   10.4
H     5.2  -10.5   -2.5
I     7.8   -2.0   -9.0
H    -5.4   -3.4   10.2
P    -9.8    6.9    0.8
H    -5.6  -10.3    2.5
H    -1.4    3.3   11.5
H     0.8   11.8   -2.3
H    12.0   -1.0   -1.4
I    10.6   -0.1   -5.8
I     3.4   11.3   -2.5
H    -2.3   -6.3   10.1
I    -3.6   -9.2    7.1
C     8.2    2.3   -8.6
H   -11.1    2.4    4.2
P     8.0    7.0   -5.7
H     8.0    1.2   -9.0
H     3.5    5.5   10.2
I    -5.1   -6.5   -8.9
H     0.7   -6.2   10.4
I    -9.8    6.8   -2.5
I     9.8    0.6    7.3
H    -0.6   11.9    2.5
I     1.8   -0.1  -12.1
I     9.8    4.4   -5.8
H     3.2  -11.7   -1.8
C    -5.6    6.7   -8.6
H    -2.2   11.3    4.2
H   -10.1   -6.8   -1.2
I   -11.5    4.2    0.8
C    -5.7   -2.4   10.6
P    -0.9  -10.8   -5.7
H     0.7   11.7    3.6
I     9.8   -4.6   -5.8
P    -9.8   -2.1    7.2
I    -9.5    6.8    4.0
C    12.0   -1.8   -2.2
H     6.6    2.6   10.1
C   -10.1   -6.7   -2.3
H    -6.6   -2.1   10.2
H    -8.5    2.5   -8.7
I     3.3   11.2    3.9
C    -5.8  -10.7   -2.2
N    -5.9  -10.3    3.5
P    -0.8   -1.8  -12.2
H     3.2   -2.5   11.7
N    -0.1   12.1   -2.7
H    -0.9   11.1    5.4
I     5.4    8.7    7.1
N     7.5    3.2   -9.4
I    -1.0    6.7   10.4
N    11.9   -1.4    3.5
I    -8.0    9.5    0.7
H    -3.7    7.4   -9.3
N    -0.3   12.0    3.5
H     2.3    6.8   10.2
H    -4.1  -11.0    4.3
I   -11.5   -4.7    0.8
H    12.2   -1.4    2.5
