         400
 sphere cut out from bulk 
I    -1.2    0.4   -1.9
I     1.2   -0.3    2.0
P     1.2   -1.8   -1.0
P    -1.2    1.8    1.1
I    -1.2   -3.7   -0.1
I     1.2    3.7    0.2
I     3.6    0.4   -1.9
I    -3.6   -0.3    2.0
P    -3.6   -1.8   -1.0
P     3.6    1.8    1.1
H    -1.2   -0.3   -4.6
H     1.2    0.3    4.8
I     1.2   -2.9   -4.0
I     3.6   -3.7   -0.1
I    -3.6    3.7    0.2
I    -1.2    2.9    4.2
H    -0.3    4.1   -3.2
H     0.3   -4.1    3.4
H    -2.1    4.1   -3.2
H    -0.4    0.8   -5.7
N    -1.2    0.2   -5.6
H     2.1   -4.1    3.4
C    -1.2    4.8   -3.1
H    -1.2    5.3   -2.2
H     0.4   -0.8    5.8
N     1.2   -0.1    5.7
H     1.2   -5.3    2.3
C     1.2   -4.8    3.3
H     3.6   -0.3   -4.6
H     2.7    4.1   -3.2
H    -2.7   -4.1    3.4
H    -3.6    0.3    4.8
H    -2.0    0.8   -5.7
I    -3.6   -2.9   -4.0
H     2.0   -0.8    5.8
I     3.6    2.9    4.2
I    -6.1    0.4   -1.9
H     2.8    0.8   -5.7
I     6.1   -0.3    2.0
H    -0.4   -4.8   -4.2
P     6.1   -1.8   -1.0
P    -6.1    1.8    1.1
H    -1.2   -6.0   -2.2
H     0.4    4.9    4.3
H    -2.8   -0.8    5.8
I     1.2    2.8   -5.8
H     1.2    6.0    2.3
I    -1.2   -2.8    5.9
N     3.6    0.2   -5.6
H    -2.0   -4.8   -4.2
H    -0.3   -1.5   -6.6
C     3.6    4.8   -3.1
H     3.6    5.3   -2.2
H     2.0    4.9    4.3
N    -3.6   -0.1    5.7
H    -3.6   -5.3    2.3
C    -3.6   -4.8    3.3
C    -1.2   -0.9   -6.7
H     0.3    1.5    6.7
H     4.5    4.1   -3.2
H     2.8   -4.8   -4.2
C     1.2    0.9    6.8
H    -4.5   -4.1    3.4
N    -1.2   -5.5   -4.2
H    -2.8    4.9    4.3
H    -2.1   -1.5   -6.6
I    -6.1   -3.7   -0.1
I     6.1    3.7    0.2
N     1.2    5.5    4.4
H     2.1    1.5    6.7
H     4.5    0.8   -5.7
N    -1.2    5.8   -4.2
H     2.7   -1.5   -6.6
C    -1.2   -6.5   -3.1
H     3.6   -6.0   -2.2
N     1.2   -5.8    4.4
H    -4.5   -0.8    5.8
H    -5.2    4.1   -3.2
I    -3.6    2.8   -5.8
H    -3.6    6.0    2.3
C     1.2    6.5    3.3
H    -2.7    1.5    6.7
H     5.2   -4.1    3.4
I     3.6   -2.8    5.9
H    -1.2    5.4   -5.2
H     1.2   -5.4    5.3
H    -6.1   -0.3   -4.6
C     3.6   -0.9   -6.7
I     1.2   -7.6    0.2
I    -1.2    7.6   -0.1
H    -0.4    6.4   -4.2
H     6.1    0.3    4.8
H     0.4   -6.4    4.3
H    -5.2    0.8   -5.7
H    -1.2   -0.3   -7.6
H     4.5   -4.8   -4.2
C    -3.6    0.9    6.8
N     3.6   -5.5   -4.2
I     6.1   -2.9   -4.0
H    -0.3   -7.1   -3.2
H     5.2   -0.8    5.8
H    -4.5    4.9    4.3
H     1.2    0.4    7.8
N    -3.6    5.5    4.4
I    -6.1    2.9    4.2
H     0.3    7.1    3.4
H    -2.0    6.4   -4.2
H    -1.2   -5.9   -5.2
H     2.0   -6.4    4.3
N     3.6    5.8   -4.2
H     1.2    5.9    5.3
C     3.6   -6.5   -3.1
H    -2.1   -7.1   -3.2
N    -3.6   -5.8    4.4
H     4.5   -1.5   -6.6
C    -3.6    6.5    3.3
H     2.8    6.4   -4.2
H     2.1    7.1    3.4
H    -2.8   -6.4    4.3
H    -4.5    1.5    6.7
H    -5.2   -4.8   -4.2
N    -6.1    0.2   -5.6
H     3.6    5.4   -5.2
H     2.7   -7.1   -3.2
C    -6.1    4.8   -3.1
H     5.2    4.9    4.3
H    -6.1    5.3   -2.2
N     6.1   -0.1    5.7
H     6.1   -5.3    2.3
H    -2.7    7.1    3.4
C     6.1   -4.8    3.3
H    -3.6   -5.4    5.3
I    -3.6   -7.6    0.2
I     3.6    7.6   -0.1
H     3.6   -0.3   -7.6
H    -5.2   -1.5   -6.6
H    -3.6    0.4    7.8
H     5.2    1.5    6.7
H     3.6   -5.9   -5.2
I     8.5    0.4   -1.9
H    -7.0    4.1   -3.2
I    -8.5   -0.3    2.0
P    -8.5   -1.8   -1.0
H    -3.6    5.9    5.3
P     8.5    1.8    1.1
H     6.9   -4.1    3.4
H    -6.1   -6.0   -2.2
I     6.1    2.8   -5.8
H     6.1    6.0    2.3
H     4.5    6.4   -4.2
I    -6.1   -2.8    5.9
H    -4.5   -6.4    4.3
H    -6.9    0.8   -5.7
H     6.9   -0.8    5.8
H     4.5   -7.1   -3.2
C    -6.1   -0.9   -6.7
H    -4.5    7.1    3.4
C     6.1    0.9    6.8
N    -6.1   -5.5   -4.2
H     7.6    4.1   -3.2
I     8.5   -3.7   -0.1
N     6.1    5.5    4.4
I    -8.5    3.7    0.2
H    -5.2    6.4   -4.2
H    -7.6   -4.1    3.4
H     5.2   -6.4    4.3
H    -5.2   -7.1   -3.2
N    -6.1    5.8   -4.2
H    -6.9   -4.8   -4.2
I     1.2    8.4   -4.0
C    -6.1   -6.5   -3.1
H     5.2    7.1    3.4
N     6.1   -5.8    4.4
H     6.9    4.9    4.3
I    -1.2   -8.4    4.2
C     6.1    6.5    3.3
H     7.6    0.8   -5.7
P     1.2    9.5   -1.0
P    -1.2   -9.4    1.1
H    -6.1    5.4   -5.2
I    -1.2   -5.3   -7.9
H    -7.7   -0.8    5.8
H     8.5   -0.3   -4.6
H     6.1   -5.4    5.3
I     6.1   -7.6    0.2
H    -7.0   -1.5   -6.6
I    -6.1    7.6   -0.1
P     1.2    3.8   -8.8
I     1.2    5.3    8.1
H    -8.5    0.3    4.8
H    -6.1   -0.3   -7.6
H     6.9    1.5    6.7
I    -8.5   -2.9   -4.0
P    -1.2   -3.8    9.0
I     8.5    2.9    4.2
H     6.1    0.4    7.8
H    -6.1   -5.9   -5.2
H     7.6   -4.8   -4.2
I    -1.2    1.9   -9.7
H     6.1    5.9    5.3
I    -3.6    8.4   -4.0
I    -1.2    6.0   -7.9
H    -7.7    4.9    4.3
I     3.6   -8.4    4.2
I     1.2   -1.9    9.9
I     1.2   -6.0    8.1
H     7.6   -1.5   -6.6
N     8.5    0.2   -5.6
P    -3.6    9.5   -1.0
P     3.6   -9.4    1.1
I     3.6   -5.3   -7.9
C     8.5    4.8   -3.1
H     8.5    5.3   -2.2
N    -8.5   -0.1    5.7
H    -7.6    1.5    6.7
H    -8.5   -5.3    2.3
C    -8.5   -4.8    3.3
P    -3.6    3.8   -8.8
I     1.2   -1.9  -10.0
H    -6.9    6.4   -4.2
I    -3.6    5.3    8.1
H     6.9   -6.4    4.3
I     1.2   -8.5   -5.8
P     3.6   -3.8    9.0
I    -1.2    1.9   10.2
I    -1.2    8.5    5.9
H    -7.0   -7.1   -3.2
H     6.9    7.1    3.4
I     3.6    1.9   -9.7
I     3.6    6.0   -7.9
H     8.5   -6.0   -2.2
I    -8.5    2.8   -5.8
H    -8.5    6.0    2.3
I    -3.6   -1.9    9.9
I    -3.6   -6.0    8.1
I     8.5   -2.8    5.9
H     9.4    4.1   -3.2
H    -9.4   -4.1    3.4
H     7.6    6.4   -4.2
C     8.5   -0.9   -6.7
I    -3.6   -1.9  -10.0
H    -7.7   -6.4    4.3
H     7.6   -7.1   -3.2
I    -3.6   -8.5   -5.8
H     9.3    0.8   -5.7
C    -8.5    0.9    6.8
N     8.5   -5.5   -4.2
H    -7.6    7.1    3.4
I     3.6    1.9   10.2
I     3.6    8.5    5.9
H    -9.3   -0.8    5.8
N    -8.5    5.5    4.4
I   -10.9    0.4   -1.9
I    10.9   -0.3    2.0
P    10.9   -1.8   -1.0
N     8.5    5.8   -4.2
P   -10.9    1.8    1.1
I     6.1    8.4   -4.0
C     8.5   -6.5   -3.1
I    -1.2  -10.9   -1.9
N    -8.5   -5.8    4.4
I    -6.1   -8.4    4.2
I     1.2   10.9    2.0
C    -8.5    6.5    3.3
P     6.1    9.5   -1.0
H     9.3   -4.8   -4.2
P    -6.1   -9.4    1.1
H     8.5    5.4   -5.2
I    -6.1   -5.3   -7.9
H   -10.0    4.1   -3.2
H    10.0   -4.1    3.4
H    -9.3    4.9    4.3
H    -8.5   -5.4    5.3
I     8.5    7.6   -0.1
I    -8.5   -7.6    0.2
P     6.1    3.8   -8.8
I     6.1    5.3    8.1
H     8.5   -0.3   -7.6
P    -6.1   -3.8    9.0
I    10.9    3.7    0.2
I   -10.9   -3.7   -0.1
H    -8.5    0.4    7.8
H     8.5   -5.9   -5.2
H     9.4   -1.5   -6.6
H   -10.1    0.8   -5.7
P     1.2   -7.5   -8.8
I    -6.1    1.9   -9.7
H    -8.5    5.9    5.3
H    -9.4    1.5    6.7
P    -1.2   -3.8  -10.9
I    -6.1    6.0   -7.9
H    10.1   -0.8    5.8
I     3.6  -10.9   -1.9
I    -3.6   10.9    2.0
P    -1.2    7.5    9.0
I     6.1   -1.9    9.9
I     6.1   -6.0    8.1
P     1.2    3.8   11.1
H    -0.3    9.8   -6.6
I    -1.2   11.6   -1.9
I     1.2  -11.6    2.0
H   -10.9   -0.3   -4.6
H     0.3   -9.8    6.7
I     6.1   -1.9  -10.0
H    10.9    0.3    4.8
H    -0.4  -10.5   -5.7
H   -10.1   -4.8   -4.2
I     6.1   -8.5   -5.8
I    10.9   -2.9   -4.0
H    10.1    4.9    4.3
H    -2.1    9.8   -6.6
H     0.4   10.5    5.8
I    -6.1    1.9   10.2
I    -6.1    8.5    5.9
H    -1.2   11.0   -4.6
I   -10.9    2.9    4.2
H     9.3    6.4   -4.2
H     2.1   -9.8    6.7
H     1.2  -11.0    4.8
H   -10.0   -1.5   -6.6
H    -2.0  -10.5   -5.7
H    -9.3   -6.4    4.3
H     2.7    9.8   -6.6
P    -3.6   -7.5   -8.8
P     3.6   -3.8  -10.9
H    10.0    1.5    6.7
H     2.0   10.5    5.8
H    -2.7   -9.8    6.7
H     1.2    0.4  -12.1
H     9.4   -7.1   -3.2
P     3.6    7.5    9.0
H     2.8  -10.5   -5.7
H    -9.4    7.1    3.4
N   -10.9    0.2   -5.6
P    -3.6    3.8   11.1
C   -10.9    4.8   -3.1
H   -10.9    5.3   -2.2
H    -2.8   10.5    5.8
N    10.9   -0.1    5.7
I     3.6   11.6   -1.9
H    10.9   -5.3    2.3
H    -1.2   -0.3   12.3
C    10.9   -4.8    3.3
I    -3.6  -11.6    2.0
C    -1.2   10.4   -6.7
H     3.6   11.0   -4.6
H    -1.2  -11.5   -4.6
C     1.2  -10.4    6.8
N    -1.2  -11.1   -5.6
H    -3.6  -11.0    4.8
H     1.2   11.5    4.8
N     1.2   11.1    5.7
I    -8.5    8.4   -4.0
H   -10.9   -6.0   -2.2
H     4.5    9.8   -6.6
I    -6.1  -10.9   -1.9
I     8.5   -8.4    4.2
I    10.9    2.8   -5.8
H    10.9    6.0    2.3
H    -3.6    0.4  -12.1
I     6.1   10.9    2.0
H   -10.1    6.4   -4.2
H    10.1   -6.4    4.3
H    -4.5   -9.8    6.7
H   -10.0   -7.1   -3.2
H     4.5  -10.5   -5.7
I   -10.9   -2.8    5.9
H    10.0    7.1    3.4
P     8.5   -9.4    1.1
P    -8.5    9.5   -1.0
I     8.5   -5.3   -7.9
N    -1.2   11.4   -5.6
H    -4.5   10.5    5.8
H     3.6   -0.3   12.3
C   -10.9   -0.9   -6.7
P    -8.5    3.8   -8.8
N     1.2  -11.4    5.7
I    -8.5    5.3    8.1
H    -5.2    9.8   -6.6
C    10.9    0.9    6.8
C     3.6   10.4   -6.7
N   -10.9   -5.5   -4.2
H   -11.8    4.1   -3.2
P     8.5   -3.8    9.0
H     5.2   -9.8    6.7
H    11.8   -4.1    3.4
H     3.6  -11.5   -4.6
N    10.9    5.5    4.4
C    -3.6  -10.4    6.8
N     3.6  -11.1   -5.6
I     1.2    5.3  -11.8
H    -5.2  -10.5   -5.7
H    -3.6   11.5    4.8
I     8.5    1.9   -9.7
P     6.1   -7.5   -8.8
N    -3.6   11.1    5.7
N   -10.9    5.8   -4.2
H   -11.7    0.8   -5.7
I     8.5    6.0   -7.9
P    -6.1   -3.8  -10.9
