         400
 sphere cut out from bulk 
P     0.3   -0.0   -1.2
I    -0.9    2.0    0.8
I    -0.8   -2.2    0.8
I     2.7    0.0    0.8
P     0.3   -0.0    2.9
I    -2.1   -0.0   -3.4
I     1.6   -2.1   -3.3
I     1.6    2.1   -3.4
H    -0.0   -4.5    0.1
H    -3.4    3.1   -0.4
H    -4.5    1.7   -0.4
H    -3.7    1.9   -2.6
H    -3.3   -3.0    2.1
H     4.8    1.7   -0.4
H    -0.7    4.7    2.0
C    -4.3    2.7   -0.8
H    -4.5   -1.6    2.1
H     1.0   -4.7   -2.1
H     4.2    3.3   -0.4
H     4.0    2.4   -2.6
N     0.3   -5.4   -0.2
H     4.8   -1.6    2.1
I    -2.1   -0.2    5.1
P     0.3   -0.1   -5.5
H     1.0    5.0    2.0
H    -0.7   -5.1   -2.1
N    -4.4    2.6   -2.2
C    -4.3   -2.7    2.4
I     1.7   -2.0    5.0
C     5.0    2.7   -0.8
C     0.3   -5.4   -1.7
H     1.2   -5.6    0.2
I     1.4    2.2    5.1
H     4.2   -3.3    2.1
H    -3.7   -1.9   -4.0
C     0.1    5.3    2.4
H    -3.7   -1.9    4.3
H    -4.1    3.6   -2.6
N     5.0    2.6   -2.2
H     0.4    4.4    4.2
H    -0.4   -6.1    0.2
C     5.0   -2.7    2.4
H    -5.2    3.3   -0.4
H     4.0   -2.5   -4.0
H     4.0   -2.5    4.3
H    -5.3    2.4   -2.6
N    -4.3   -2.7    3.9
H    -5.1   -3.3    2.1
H     5.6    1.9   -2.6
H     1.1    4.0   -5.0
N     0.1    5.3    3.9
I    -6.6    0.0    0.8
H    -0.2    6.4    2.0
H     5.9    3.1   -0.4
H    -4.0   -3.6   -4.0
N    -4.3   -2.7   -4.3
H     0.5   -6.4   -2.0
H     5.3    3.6   -2.6
N     5.0   -2.7    3.9
H    -4.0   -3.6    4.3
I     3.6    5.9    0.9
H     6.0   -3.0    2.1
H    -0.9    5.5    4.2
I     3.6   -6.0    0.9
H    -5.3   -2.5   -4.0
N     5.0   -2.7   -4.3
H     5.6   -1.9   -4.0
H    -1.0    5.2   -4.8
P     0.3   -0.1    7.2
H    -5.3   -2.5    4.3
H     5.6   -1.9    4.3
H     0.7    6.1    4.2
N     0.7    4.6   -5.8
I    -3.2   -5.9   -3.4
H     5.3   -3.6   -4.0
H     0.2    4.0   -6.4
I    -3.4    5.9   -3.4
H    -3.4   -3.0   -6.2
H    -3.9    1.6    6.5
H     5.3   -3.6    4.3
H     0.4    6.3   -4.5
C    -0.2    5.7   -5.2
H     3.5    3.0    6.2
C    -4.3   -2.7   -5.8
I    -0.9    2.0   -7.5
H    -4.6   -1.7   -6.2
H     1.0   -4.6    6.3
I    -0.9   -2.2   -7.6
I     7.2   -0.0   -3.4
H     4.7   -1.7   -6.2
I     2.7   -0.0   -7.6
C     5.0   -2.7   -5.8
I    -2.0   -7.9    0.9
H    -0.7   -5.1    6.3
H     1.6    5.0   -6.3
H     4.2   -3.4   -6.2
I    -5.7    5.9    0.9
I    -5.7   -6.0    0.9
I    -3.3   -5.9    5.0
I    -3.2    6.0    5.1
H    -4.4    3.9    6.1
I    -2.2    8.2    0.9
H     5.4    1.6    6.5
C     0.3   -5.4    6.7
I     8.4    2.0    0.8
I    -7.7   -2.1   -3.3
C    -4.1    2.2    7.3
N     4.3    3.3    6.8
H    -5.1   -3.4   -6.2
I    -7.7    2.1   -3.4
H     4.9    3.9    6.1
H    -0.5    6.3   -6.1
H    -3.3    2.6    7.7
I     8.5   -2.2    0.8
I     7.2   -0.2    5.1
I     5.9    5.9   -3.4
I     2.3    8.0   -3.4
H     0.6   -6.4    6.3
N    -5.0    3.3    6.8
H    -5.8    3.0    6.2
P    -9.0   -0.0   -1.2
H     6.0   -3.0   -6.2
I     2.5   -8.1   -3.4
I     6.1   -5.9   -3.4
C     5.2    2.2    7.3
P    -4.4   -8.1   -1.3
P    -4.7    8.0   -1.3
P     4.7    8.0   -1.3
I    -7.6   -2.0    5.0
H    -0.1   -4.5   -8.3
H     4.6    1.7    8.0
H     4.0    3.9    7.5
P    -9.0   -0.0    2.9
H    -4.7    1.7    8.0
P     4.9   -8.1   -1.3
I    -0.9    2.0    9.3
I    -0.9   -2.2    9.2
I     2.3    7.8    5.1
P    -4.4   -8.0    2.9
I     2.7   -0.1    9.3
H    -0.1   -4.5    8.5
P     0.3   -0.1   -9.7
I    -7.9    2.2    5.1
P    -4.6    8.0    2.9
P     4.7    8.0    2.9
P     9.7   -0.0   -1.2
H    -8.3   -4.7   -2.1
I     6.0   -5.9    5.0
N     0.3   -5.4    8.2
H    -8.1   -5.6    0.2
H     0.3    9.6   -2.0
P     4.9   -8.0    2.9
H    -8.3    5.0    2.0
I     6.1    6.0    5.1
H     0.1   -9.7    2.0
H    -0.6    9.9    0.2
H     8.6    4.7    2.0
H    -3.2    2.7   -9.1
I     2.5   -8.3    5.1
H     1.2   -5.5   -8.3
H    -5.3    3.9    7.5
I    -6.6   -0.0   -7.6
H     4.6    1.7   -8.8
P     9.6   -0.0    2.9
H    -4.7    1.7   -8.8
H     6.1    2.6    7.7
N     0.3   -5.4   -8.6
H     8.6   -5.1   -2.1
I     3.6    5.8   -7.6
H     1.2   -5.6    8.6
H     9.3   -4.5    0.1
I     3.6   -6.0   -7.6
H    -0.4   -6.1   -8.3
H    -9.4   -4.5    0.1
I   -10.1   -2.2    0.8
H    -8.2    4.0   -5.0
I   -10.3    2.0    0.8
P    -9.0   -0.1   -5.5
N    -9.0   -5.4   -0.2
H    -0.4   -6.1    8.5
H     1.0   10.5    0.2
C    -4.1    2.2   -9.5
I     3.4   10.1    0.9
P    -4.4   -8.0   -5.5
N     0.0   10.7   -0.2
C    -9.0   -5.4   -1.7
P    -4.6    8.0   -5.5
C     0.0   10.6   -1.7
P     4.7    8.0   -5.5
H     0.6   -9.8   -4.5
H    -8.9    4.4    4.2
I     7.3   -7.9    0.9
H     9.0   -6.1    0.2
H     4.0    4.0   -9.3
P     4.9   -8.0   -5.5
I     7.1    8.2    0.9
H     8.3    5.2   -4.8
H     8.4    5.5    4.2
I     3.8  -10.2    0.9
H     0.9  -10.0    4.2
C    -9.3    5.3    2.4
C     0.3  -10.7    2.4
N     9.6   -5.4   -0.2
C     9.4    5.3    2.4
C     5.2    2.2   -9.5
I    -6.8   -8.1   -3.4
P     9.6   -0.1   -5.5
I    -2.0   -7.9   -7.6
H    -8.8   -6.4   -2.0
H     0.2    4.0   10.4
C     9.6   -5.4   -1.7
H    -3.9    1.6  -10.4
H    -0.9   10.9   -2.1
I    -7.0    8.0   -3.4
I    -5.8    5.8   -7.6
H    -7.8    5.0   -6.3
I    -3.2  -10.2   -3.4
I    -5.8   -6.0   -7.6
H     6.1    2.7   -9.1
I    -3.5   10.2   -3.4
H   -10.0    4.7    2.0
H     1.3  -11.0    2.0
N    -8.6    4.6   -5.8
H     9.2    6.4    2.0
P     0.3   -0.2   11.3
N    -9.3    5.3    3.9
H    -8.6    6.1    4.2
I    -2.2    8.2   -7.6
I    -6.6   -0.1    9.3
H    -5.3    4.0   -9.3
H    -0.7  -10.6    4.2
N     0.3  -10.7    3.9
N     9.4    5.3    3.9
H    -8.3   -4.6    6.3
H   -10.0   -5.1   -2.1
H    -9.7   -6.1    0.2
I     3.5    5.8    9.2
H     9.7    4.4    4.2
N     4.3    3.4  -10.1
H    -0.2   -9.7   -6.1
C     0.3   -5.4  -10.1
H     1.0   -4.6  -10.5
P    -9.0   -0.1    7.2
I     8.4    2.0   -7.5
H     3.5    3.0  -10.6
H     0.8   11.3   -2.1
H    -3.4   -3.0   10.6
I     8.5   -2.2   -7.6
P    -4.4   -8.0    7.1
H    10.4   -4.7   -2.1
H     0.3    9.7    6.3
H    -9.5    6.4    2.0
H    -0.5  -11.4    2.0
I     3.6   -6.0    9.3
I    -5.5  -10.2    0.9
H    -0.3   11.6    0.1
I    10.9   -2.1   -3.3
C     0.1  -10.4   -5.2
I    10.9    2.1   -3.4
I    -7.0    7.8    5.1
H    10.4    5.0    2.0
H    -0.7   -5.1  -10.5
I    -3.0  -10.1    5.1
N    -5.0    3.4  -10.1
H    -4.6   -1.7   10.6
I    -6.0   10.1    0.9
P    -4.6    8.1    7.1
H     4.7   -1.7   10.6
H     1.5    5.0   10.5
P     4.7    8.1    7.1
P     4.9   -8.0    7.1
H    -8.9    6.3   -4.5
H     5.4    1.6  -10.4
I    -6.8   -8.3    5.1
H     8.6   -5.1    6.3
H    -9.1    4.0   -6.4
H    -0.8  -10.9   -4.8
I    -3.5   10.2    5.0
H     9.8   -6.4   -2.0
I   -11.4   -0.0   -3.4
H    10.6   -5.6    0.2
I    -2.1   -0.2  -11.8
H     4.2   -3.4   10.7
C     9.2    5.7   -5.2
N     0.7    4.6   11.0
P     9.6   -0.1    7.2
I     1.4    2.2  -11.7
I    10.7    2.2    5.1
I     1.7   -2.0  -11.8
I    12.1    0.0    0.8
C    -4.4   -2.7   11.0
H     9.5    4.0   -6.4
I     5.9   10.2   -3.4
C    -9.5    5.7   -5.2
H    10.4    4.0   -5.0
H    -4.4    3.9  -10.7
I    11.0   -2.0    5.0
H     0.6   -6.4  -10.5
H    -5.1   -3.4   10.7
I    -5.8    5.8    9.2
I    -2.0   -7.9    9.3
I     6.1  -10.2   -3.4
H   -10.2    5.5    4.2
C     5.0   -2.7   11.0
H     9.7    6.3   -4.5
H     0.6  -11.7    4.2
H     4.9    3.9  -10.7
H    -5.8    3.0  -10.6
H    10.0    6.1    4.2
I    -5.8   -6.0    9.3
H     8.8    6.3   -6.1
C    -9.0   -5.4    6.7
I   -11.4   -0.2    5.1
H    -0.5    6.3   10.7
N    10.1    4.6   -5.8
H   -10.3    5.2   -4.8
H     1.1    4.0   11.8
H    -8.7   -6.4    6.3
I    -2.2    8.2    9.3
H     6.0   -3.0   10.6
C     0.0   10.7    6.7
H    -1.0   10.9    6.3
I     8.4    2.0    9.3
I     8.5   -2.2    9.2
I     5.8   10.2    5.0
H     1.8  -11.0   -6.3
H    -8.1   -5.5   -8.3
I   -10.2    2.0   -7.5
N     1.0  -11.4   -5.8
C     9.6   -5.4    6.7
I   -10.2   -2.2   -7.6
C    -0.2    5.7   11.6
H   -10.0   -5.1    6.3
H    -0.6    9.9   -8.3
I     6.3  -10.1    5.1
H    10.3   -4.6    6.3
I     3.3   10.1   -7.6
H    -8.1   -5.6    8.6
H   -12.7    3.1   -0.4
H     1.3  -12.0   -5.0
H    -0.6    9.9    8.5
H     0.8   11.4    6.3
H    -1.0    5.2   12.0
H    -9.8    6.3   -6.1
I     7.3   -7.9   -7.6
H     9.2   -4.5   -8.3
H   -12.7   -3.0    2.1
H    -3.7   -1.9  -12.5
P    -9.0   -0.1   -9.7
I     7.1    8.2   -7.6
H     8.7    9.9    0.2
P    -4.4   -8.0   -9.7
H    -9.4   -4.5   -8.3
I     3.8  -10.2   -7.6
H    -3.8  -12.5   -2.6
N    -9.1   -5.4    8.2
H     9.2   -4.5    8.5
H     0.4    4.4  -12.6
H     9.9   -6.4    6.3
H    -9.1    9.6   -2.0
H    -3.2  -13.0   -0.4
H    -8.3   10.5    0.2
H     4.0   -2.5  -12.5
H   -13.0    1.9   -2.6
H     1.0   10.5   -8.3
P    -4.6    8.1   -9.7
N     0.0   10.7    8.2
P     4.9   -8.0   -9.7
P     4.7    8.1   -9.7
H     4.4  -12.7   -0.4
H    -9.4   -4.5    8.5
H     4.0   12.7    2.1
N    -4.4   -2.7   12.5
H    -3.7   -1.9   12.8
H    10.9    5.0   -6.3
H    -9.2   -9.7    2.0
I    -3.2    6.0  -11.7
I    -3.3   -5.9  -11.8
H     1.0   10.5    8.6
I    -2.1   -0.0   13.5
I     1.6    2.1   13.4
N    -9.1   -5.4   -8.6
H    -4.0   -3.6  -12.5
P     9.6   -0.1   -9.7
H     9.0   -6.1   -8.3
H     9.4   -9.7    2.0
H    -4.9  -12.7   -0.4
H     0.4  -12.0   -6.4
N     9.6   -5.4    8.2
H     4.0   -2.6   12.8
N     5.0   -2.7   12.5
H    -3.6   13.1    2.1
H     9.6    9.6   -2.0
I     1.6   -2.1   13.5
H    -8.4  -10.0    4.2
H    -4.2   12.5   -4.0
N     0.0   10.7   -8.6
H    -0.9    5.5  -12.6
H   -13.0   -1.9   -4.0
H    13.3    2.4   -2.6
