         400
 sphere cut out from bulk 
H     1.7    1.6   -0.1
I    -1.6    1.6    0.8
H    -1.1   -1.6    1.6
H    -2.3   -1.5   -0.6
H     1.8    1.5    1.7
I     0.8    0.1   -2.8
C     2.3    1.7    0.8
H    -1.2   -2.8   -0.5
N    -2.1   -2.4   -0.1
C    -1.9   -2.2    1.4
H     3.3    1.1    0.7
I     3.0   -1.9    0.8
P    -1.6    2.2   -2.3
H    -2.8   -1.8    1.8
H    -1.8   -3.2    1.8
H    -2.9   -3.0   -0.3
N     2.7    3.2    0.8
H     1.9    3.8    0.9
P     2.8   -2.3   -2.4
I     0.8    0.1    4.4
I    -3.6   -0.4   -2.7
I     0.3   -4.3   -1.9
P    -1.6    2.2    3.9
H     3.3    3.4   -0.0
H     3.3    3.4    1.6
I     0.3    4.7   -1.9
H    -2.2   -1.1   -4.7
P     2.8   -2.3    4.0
H     2.9    1.8   -4.3
H    -0.8   -0.7   -5.4
H    -0.6   -3.0   -4.8
I     0.4   -4.4    3.5
H     1.9   -5.3    0.9
I    -3.7   -0.4    4.4
I     0.4    4.7    3.5
N    -1.6   -1.3   -5.5
H    -5.7    1.1    0.7
I     5.4   -0.4   -2.7
I    -4.2    4.2   -1.9
H     1.8    1.9   -5.7
C     2.9    1.7   -5.3
C    -1.1   -2.7   -5.7
H    -1.2    6.2   -0.5
I    -6.0   -1.9    0.8
H    -1.8    5.9    1.8
I    -1.8    2.7   -5.5
H     3.3   -5.6   -0.0
N     2.7   -5.9    0.8
H     3.2    0.8   -5.7
H     6.2   -1.8    1.8
I    -4.2   -4.8   -1.9
H    -2.9    6.0   -0.3
H    -5.7    3.4   -0.0
I     4.8    4.2   -1.9
H    -2.2   -1.1    6.3
H    -0.5   -2.9    6.1
H    -2.1   -1.0   -6.4
H     3.3   -5.7    1.6
H    -5.7    3.4    1.6
I     2.8   -2.9   -5.5
H     6.1   -3.0   -0.3
I    -4.2    4.1    3.6
H     6.7   -1.5   -0.6
C    -6.7    1.7    0.8
I     5.3   -0.4    4.4
H    -2.0   -3.3   -5.7
N    -2.1    6.6   -0.1
P    -6.2   -2.3   -2.4
N    -6.3    3.2    0.8
I     4.8   -4.8   -1.9
H    -0.5   -2.8   -6.5
H     3.6    2.7    5.7
C    -1.9    6.8    1.4
I     4.8    4.1    3.6
H    -0.8   -0.7    7.2
N     6.9   -2.4   -0.1
I    -4.2   -4.9    3.6
P    -1.6   -6.8   -2.3
H     1.8    1.8    7.0
N    -1.6   -1.4    7.1
H    -7.3    1.6   -0.1
C     7.1   -2.2    1.4
H    -7.2    1.5    1.7
N     3.7    2.8   -6.0
H     3.3    3.8   -5.7
H    -6.1    1.8   -4.3
C    -1.2   -2.8    7.0
I     7.4    1.6    0.8
H    -4.3    2.8   -5.7
I    -1.6   -7.5    0.8
H     3.2    0.7    7.0
P     2.8    6.8   -2.4
H     1.7   -7.5   -0.1
P    -6.2   -2.3    4.0
H    -1.1    7.5    1.6
C     2.4   -7.3    0.8
H    -0.6    6.1   -4.8
I     4.8   -4.9    3.6
I     3.0    7.1    0.8
I    -1.9    2.6    7.1
H     4.7    2.8   -5.7
H    -2.3    7.5   -0.6
H     1.8   -7.6    1.7
H    -2.1   -3.4    6.9
C     2.8    1.6    7.3
H    -5.7   -5.6   -0.0
P     7.4    2.2   -2.3
H    -2.8    7.3    1.8
P    -1.6   -6.9    3.9
N     3.6    2.7    6.7
H    -7.1    3.8    0.9
H     7.2   -3.2    1.8
H    -5.8    0.8   -5.7
I     2.7   -3.0    7.1
H    -5.7   -5.7    1.6
H     7.9   -1.6    1.6
H    -5.4    2.7    5.7
H     7.8   -2.8   -0.5
I     0.9    0.2   -8.2
P     2.8    6.8    4.0
C    -6.1    1.7   -5.3
H    -2.0    5.7   -5.7
H     6.8   -1.1   -4.7
H    -2.2   -1.2    8.0
H     3.7    2.8   -7.0
H     3.3   -5.3   -5.7
N    -5.3    2.8   -6.0
H    -0.6   -3.1    7.9
H     3.3    3.7    7.0
C    -1.1    6.3   -5.7
H     6.1    6.0   -0.3
I    -1.8   -6.4   -5.5
H     3.3   -7.9    0.7
P     7.4    2.2    3.9
N    -6.3   -5.9    0.8
H    -4.4    2.7    7.0
I    -8.2    0.1   -2.8
H    -0.5    6.2    6.1
I     2.8    6.2   -5.5
H     4.6    2.7    7.0
I    -6.2   -2.9   -5.5
H    -5.7    3.8   -5.7
H    -7.1   -5.3    0.9
H     2.9   -7.2   -4.3
N    -5.4    2.7    6.7
I    -3.6   -0.3   -8.3
H     2.9    1.7    8.4
H    -0.5    6.3   -6.5
H    -5.8    0.7    7.0
H    -2.1    5.6    6.9
P    -1.6    2.3   -8.8
H     3.6   -6.4    5.7
H    -5.3    2.8   -7.0
I    -8.2    0.1    4.4
H     1.8   -7.2   -5.7
H    -7.2    1.9   -5.7
H     6.8   -1.1    6.3
N     7.4   -1.3   -5.5
I     0.8   -8.9   -2.8
N     3.7   -6.2   -6.0
I    -6.0    7.1    0.8
H     3.3   -5.4    7.0
P     2.9   -2.2   -8.7
H     6.9   -1.0   -6.4
H    -2.2    7.9   -4.7
C    -1.2    6.2    7.0
I     7.2    2.7   -5.5
H     7.2    5.9    1.8
P    -6.2    6.8   -2.4
C     2.9   -7.3   -5.3
H    -4.3   -6.3   -5.7
N     6.9    6.6   -0.1
H    -5.7   -5.3   -5.7
I     0.8    9.2   -2.8
H     7.0   -3.3   -5.7
N    -1.6    7.8   -5.5
H     4.7   -6.3   -5.7
H     6.2    7.3    1.8
C    -6.2    1.6    7.3
H    -5.7    3.7    7.0
I     2.7    6.1    7.1
I    -1.8   -6.5    7.1
H    -5.7   -7.9    0.7
I    -3.6    8.7   -2.7
I     5.4   -0.3   -8.3
I    -8.7   -4.3   -1.9
I     0.7    0.0    9.9
N     3.6   -6.3    6.7
H     8.2   -0.7   -5.4
C    -6.6   -7.3    0.8
C     7.1    6.8    1.4
H    -0.6    6.0    7.9
I    -6.3   -3.0    7.1
H     7.8    6.2   -0.5
I     0.8   -8.9    4.4
P    -6.2    6.8    4.0
H    -0.8    8.4   -5.4
C     7.9   -2.7   -5.7
H    -5.4   -6.4    5.7
H     3.7   -6.3   -7.0
I     0.4   -4.3   -9.1
I    -8.7    4.7   -1.9
H     6.7    7.5   -0.6
N    -5.3   -6.2   -6.0
H     8.4   -3.0   -4.8
I     9.8    0.1   -2.8
H    -7.2    1.8    7.0
I     0.8    9.2    4.4
H     1.8   -7.3    7.0
I     0.4    4.8   -9.1
P     7.4   -6.8   -2.3
I    -8.6   -4.4    3.5
H   -10.1   -1.6    1.6
H    -6.1   -7.2   -4.3
N     7.4   -1.4    7.1
H    -2.2    7.9    6.3
H     6.9   -3.4    6.9
I    -6.2    6.2   -5.5
I    -3.7    8.7    4.4
H    -4.4   -6.4    7.0
I    -8.6    4.7    3.5
I     7.1    2.6    7.1
I     9.3   -4.3   -1.9
H    -7.3   -7.5   -0.1
I    -3.6   -9.4   -2.7
H    -2.1    8.0   -6.4
H    -5.7   -5.4    7.0
H    -6.1    1.7    8.4
H     6.8   -1.2    8.0
H     4.6   -6.4    7.0
H     3.2   -8.3   -5.7
I     7.4   -7.5    0.8
I     5.4    8.7   -2.7
H    -7.2   -7.6    1.7
I    -3.7   -0.5    9.9
N    -1.6    7.7    7.1
I     9.3    4.7   -1.9
H   -10.2   -2.8   -0.5
N    -5.4   -6.3    6.7
P    -1.7    2.1   10.3
H     7.0    5.7   -5.7
H     3.3   10.2    0.7
I   -10.6    1.6    0.8
H     1.7   10.6   -0.1
I     9.8    0.1    4.4
C     2.8   -7.4    7.3
I    -1.6   10.6    0.8
H    -1.1  -10.6    1.6
H    -5.3   -6.3   -7.0
H    -2.3  -10.6   -0.6
P     7.4   -6.9    3.9
H     8.5   -2.9    6.1
H     1.8   10.5    1.7
H    10.7    1.6   -0.1
I    -4.1    4.2   -9.1
P    -6.1   -2.2   -8.7
C     7.8   -2.8    7.0
P     2.7   -2.4   10.3
H     8.2   -0.7    7.2
C    -6.1   -7.3   -5.3
I     9.4   -4.4    3.5
H     7.9    7.5    1.6
I    -3.7   -9.4    4.4
H    -0.8    8.3    7.2
H    10.8    1.5    1.7
I     9.4    4.7    3.5
C     2.3   10.8    0.8
I     7.2   -6.4   -5.5
H    -9.6   -3.0   -4.8
H     8.5   -2.8   -6.5
I    -4.1   -4.8   -9.1
I     5.3    8.7    4.4
P   -10.6    2.2   -2.3
I     4.9    4.2   -9.1
H    -0.8   -9.7   -5.4
I     5.4   -9.4   -2.7
P    -1.6   -6.8   -8.8
H    -9.8   -0.7   -5.4
H    -1.0   -1.5  -11.1
H     1.8    1.6  -11.0
C   -10.9   -2.2    1.4
I     5.3   -0.5    9.9
H     6.9    5.6    6.9
I    -6.3    6.1    7.1
H    -2.8  -10.8    1.8
H     3.2   -8.4    7.0
N   -11.1   -2.4   -0.1
H    -2.8   -1.7  -10.9
H    -1.7   -3.1  -10.8
H    -2.2    7.8    8.0
I     3.0  -11.0    0.8
H   -10.8   -3.2    1.8
I     4.9   -4.8   -9.1
H   -11.3   -1.5   -0.6
P     2.9    6.9   -8.7
H    -2.2  -10.2   -4.7
H     8.4    6.1   -4.8
H     6.8    7.9   -4.7
H     2.9   -7.3    8.4
C    11.3    1.7    0.8
P   -10.6    2.2    3.9
C    -1.9  -11.3    1.4
H    10.9    3.8    0.9
H    -5.8   -8.3   -5.7
I    -8.1    0.2   -8.2
C     7.9    6.3   -5.7
C    -1.9   -2.1  -11.3
I     0.3   -4.4   10.7
H    -7.2   -7.2   -5.7
P    -1.7   11.3   -2.3
N    -2.1  -11.5   -0.1
I     5.3   -9.4    4.4
H    -9.5   -2.9    6.1
H    -5.7   10.2    0.7
I     0.3    4.6   10.7
P     7.4    2.3   -8.8
H     3.2    9.8   -5.7
N    -1.6  -10.3   -5.5
H    -9.5   -2.8   -6.5
C   -10.1   -2.7   -5.7
P     2.8  -11.3   -2.4
H     8.4   -3.1    7.9
H    -1.2  -11.9   -0.5
P    -1.6   11.2    3.9
I     7.2   -6.5    7.1
H   -10.2    6.2   -0.5
N   -10.6   -1.3   -5.5
H     3.4    3.5  -11.0
H     2.9   10.9   -4.3
N     7.4    7.8   -5.5
H    -2.1  -10.1   -6.4
I    -1.5    1.7  -11.9
I     0.9   -8.8   -8.2
C    -6.2   -7.4    7.3
H   -11.8   -1.8    1.8
H     8.5    6.2    6.1
I    12.0   -1.9    0.8
H    -2.2  -10.1    6.3
H    10.9   -5.3    0.9
H   -11.2   -1.1   -4.7
N    11.7    3.2    0.8
H    -0.8   -9.8    7.2
H    -9.8   -0.7    7.2
H     6.8    7.9    6.3
C     7.8    6.2    7.0
P    11.8   -2.3   -2.4
C     2.4    1.8  -11.9
I    -4.2    4.1   10.7
P    -6.3   -2.4   10.3
H   -11.9   -3.0   -0.3
H    -9.6    6.1   -4.8
H    12.3    1.1    0.7
H    -5.8   -8.4    7.0
P     2.8  -11.3    4.0
H     6.9    8.0   -6.4
H    10.8    1.9   -5.7
I     3.0   -1.8  -11.9
C     2.9   10.8   -5.3
H     3.2    9.7    7.0
H   -10.8    5.9    1.8
H    -7.2   -7.3    7.0
I   -10.8    2.7   -5.5
H    -2.4   -1.6   12.1
H     8.5    6.3   -6.5
H    -2.9  -12.1   -0.3
H     1.8   10.9   -5.7
H     3.3    1.2  -11.9
I    -8.2   -8.9   -2.8
I     4.8    4.1   10.7
I     0.9    9.3   -8.2
H    -1.7    6.0  -10.8
H    -1.8  -12.2    1.8
H     6.7  -10.6   -0.6
I    -6.0  -11.0    0.8
P     2.7    6.7   10.3
N     2.7   12.2    0.8
H    -1.3   -2.9   12.1
I    -4.2   -4.9   10.7
P    -1.7   -6.9   10.3
H     2.0    3.9  -11.8
H     6.2  -10.8    1.8
I    -3.6    8.8   -8.3
N     2.8    3.3  -11.8
H     6.2   -1.7  -10.9
H   -10.1    7.5    1.6
P    -6.1    6.9   -8.7
I    -8.2    9.2   -2.8
C   -10.2   -2.8    7.0
P    11.8   -2.3    4.0
C    -6.7   10.8    0.8
H    -6.1   -7.3    8.4
H    -5.8    9.8   -5.7
H     1.7    1.5   12.5
N    -1.6  -10.4    7.1
I     4.8   -4.9   10.7
H    12.3    3.4   -0.0
N     7.4    7.7    7.1
H     3.4   -5.6  -11.0
H    -9.6   -3.1    7.9
H    11.9    1.8   -4.3
