         400
 sphere cut out from bulk 
H     0.5    0.4   -0.6
C     0.2    1.4   -0.2
H     0.1    1.4    0.8
H    -1.9    0.9   -0.5
N    -1.2    1.6   -0.8
H     0.8    2.1   -0.6
H     0.4   -2.4    0.4
H    -1.3   -2.3    0.6
H    -1.1    1.6   -1.9
N    -0.5   -2.9    0.7
H    -1.5    2.6   -0.6
I     2.7   -1.6   -0.3
I    -3.4   -0.8    0.2
H    -0.4   -3.1    1.7
I     1.4    0.6    3.4
H    -0.7   -3.9   -1.1
C    -0.6   -4.1   -0.1
I     3.6    2.9    0.1
I    -0.8    1.6   -4.3
P     4.3    0.2    1.9
H     2.1    2.2   -3.6
H     0.3   -4.7    0.1
H    -0.8    4.0    2.8
H    -1.5   -4.7    0.3
H     0.7    2.8    4.2
I    -2.2   -3.0   -3.7
I    -2.2    4.7    0.3
H     3.3    3.7   -2.2
H    -1.7    3.3    4.2
I    -0.1   -3.9    4.0
C     3.0    2.7   -4.0
C    -1.0    4.0    3.8
N     0.3    3.7    4.5
H     3.9    2.2   -3.9
N     3.1    4.0   -3.2
P    -5.1   -2.6   -2.1
H     2.3    4.6   -3.3
P     1.5   -1.7    5.7
P     5.1   -2.6   -2.1
H     1.1    4.4    4.2
I    -4.4    2.5    3.6
P    -5.9    0.2    1.9
P    -2.4   -0.7   -5.9
I     4.4   -2.1    4.2
H     2.8    3.0   -5.0
H    -2.8   -5.0    3.2
I     4.9   -0.4   -4.4
H    -1.2    5.1    4.1
H     0.3    3.8    5.5
I    -4.3   -5.3   -0.4
I    -5.3   -0.4   -4.4
I     6.8   -0.8    0.2
H     0.0   -6.2   -3.0
H     4.0    4.5   -3.5
H    -1.6   -5.2   -4.5
I     0.2    6.0   -3.7
I     3.6   -4.9   -3.8
H     0.8   -5.5   -4.4
I    -6.6    2.9    0.1
I     5.8    2.5    3.6
H    -4.4   -5.4    2.3
I     1.3   -7.3   -0.5
P    -5.0    5.2    1.8
I    -5.8   -2.1    4.2
C    -3.7   -5.7    3.2
P     5.1    5.2    1.8
C     0.1   -6.3   -4.1
P    -1.5    4.2   -6.0
I    -0.9   -0.7    7.5
I     2.7    6.1    3.6
H     3.5    0.5   -6.8
P    -2.4    7.1   -1.9
I    -7.5   -1.6   -0.3
H    -6.3    2.2   -3.9
I    -3.9    5.2   -4.3
N    -1.2   -6.1   -4.7
I     0.0   -1.7   -7.7
H    -4.8   -4.4    4.4
I     5.9   -5.3   -0.4
H    -4.6    2.5    6.0
H    -3.4   -6.7    3.2
H    -6.9    3.7   -2.2
H    -3.2    1.2    7.4
H     5.4   -4.4    4.4
N    -4.4   -5.4    4.4
H     5.8   -5.4    2.3
H    -1.9   -6.8   -4.4
H     8.3    0.9   -0.5
H    -6.2    4.5   -3.5
H    -2.7    3.0    7.4
H     2.4   -3.4   -7.4
H     1.6    0.1   -8.3
H     0.2    7.9    3.2
H     0.5   -7.3   -4.3
I     3.1    0.2    7.9
H    -1.1   -6.2   -5.8
H    -4.5   -2.5    6.8
I    -3.1    2.0   -7.7
H     5.5    2.5    6.0
H    -3.9   -5.6    5.3
I     1.3    3.9   -7.6
C    -7.2    2.7   -4.0
H     3.8   -4.8   -6.2
N    -7.1    4.0   -3.2
C     3.7    0.4   -7.9
H     2.1    1.7   -8.3
P     0.6   -6.6    5.8
C    -3.5    2.2    7.7
I    -3.5    7.0    4.1
I    -0.0    3.8    7.9
I     4.9    7.3   -0.5
P     4.2   -7.5   -1.9
H    -2.5   -2.3    8.1
N    -4.7    2.6    7.1
H     4.7    1.9    7.3
I     2.2   -4.3    7.5
N     2.4    0.7   -8.6
H     4.9   -6.0    4.4
I    -6.6   -4.9   -3.8
I    -5.3    7.3   -0.5
H     8.7    2.6   -0.6
N     5.8   -5.4    4.4
H     1.7    7.7   -4.4
H     3.9   -0.6   -8.2
H    -8.1    2.2   -3.6
H     1.8   -5.1   -7.4
H    -5.3   -6.0    4.4
I     3.1   -7.6    4.1
C     6.5   -5.7    3.2
N     9.0    1.6   -0.8
I     6.2    5.2   -4.3
H     8.9   -2.3    0.6
I    -1.0   -8.4    3.6
H     5.7   -2.5    6.8
C     2.6   -4.4   -7.8
N     5.4    2.6    7.1
I    -0.7    9.3   -0.4
I     8.0   -3.0   -3.7
I     8.0    4.7    0.3
H    -5.5    1.9    7.3
H     9.1    1.6   -1.9
H     4.1    7.3   -4.3
H     4.4    1.1   -8.2
I    -4.0   -2.5   -8.2
H    -7.4    3.0   -5.0
H     7.4   -5.0    3.2
C    -4.6   -2.5    7.9
H    -0.7    9.1    2.3
C    -0.1    8.9    3.2
I    -8.8    0.6    3.4
N     3.9   -4.8   -7.2
H    -3.0   -3.9    8.1
N    -3.3   -3.0    8.4
H    -6.7    0.5   -6.8
H    -5.1    3.5    7.3
H     3.6    8.4   -3.0
H     5.1    3.5    7.3
H    -9.4    2.1   -0.6
H    -4.8   -1.5    8.3
P     1.5   -9.4    1.8
H    -7.9    4.6   -3.3
H    -9.7    0.4   -0.6
H     4.6   -4.2   -7.5
P     7.8   -0.7   -5.9
H    -1.7    8.5    4.4
P    -6.0   -7.5   -1.9
H    -3.6    2.3    8.8
P     0.6    1.2    9.8
I    -2.4   -6.2    7.3
H     8.7   -4.7    0.3
C     3.7    8.3   -4.1
H     2.5    0.7   -9.6
N     2.4    8.5   -4.7
H     6.3   -5.6    5.3
I    -3.5   -8.6   -3.7
H     5.4   -1.5    8.3
C     5.6   -2.5    7.9
H     8.5    3.3    4.2
H     6.8   -6.7    3.2
H     4.9   -3.2    8.2
H    -6.4   -4.8   -6.2
H    -9.8   -2.4    0.4
H     2.1    9.9    0.3
H    -5.8    1.1   -8.2
H     0.8    9.6    3.2
C   -10.0    1.4   -0.2
N     9.7   -2.9    0.7
H     2.6   -4.4   -8.8
N    -0.8    9.2    4.4
H    -5.6   -4.2   -7.5
H   -10.1    1.4    0.8
C    -6.5    0.4   -7.9
H     9.4   -3.9   -1.1
I    -0.9   -6.2   -8.2
H     7.0    1.2    7.4
H    -5.3   -3.2    8.2
H    -6.3   -0.6   -8.2
H     4.1   -5.8   -7.5
I    -7.5    6.1    3.6
H    10.2    1.4    0.8
H    -0.2    9.0    5.3
H    -6.1    7.3   -4.3
C     9.6   -4.1   -0.1
C    10.3    1.4   -0.2
I     9.4    1.6   -4.3
H     9.8   -3.1    1.7
H    -3.3   -3.0    9.5
H     2.5    8.4   -5.8
I     6.7    7.0    4.1
P    -8.6   -1.7    5.7
C     6.7    2.2    7.7
H     9.4    4.0    2.8
I     6.2   -2.5   -8.2
H    -1.3  -10.0   -3.3
H     3.9    9.8    0.1
I     2.6   -9.3   -4.3
H     2.0    9.4   -4.5
I    -7.1    0.2    7.9
H    -2.8    1.9  -10.1
P    -1.5   -3.5  -10.0
I     7.1    2.0   -7.7
H     0.4  -10.1   -3.5
H    10.7    0.4   -0.6
P     4.2    8.0    5.8
P     7.8    7.1   -1.9
N    -6.3   -4.8   -7.2
I    -1.8    6.6   -8.3
H    -9.5    2.8    4.2
I     4.4    5.7    8.0
I     4.4   -9.8    0.3
C     9.2    4.0    3.8
I    -3.0    9.7   -3.8
C     3.0   10.4   -0.1
H    10.6   -2.4    0.4
H     7.5    3.0    7.4
H    -9.1    4.4    4.2
H     1.9   -4.3    9.9
H    -9.9   -4.7    0.1
H     4.4    9.0   -4.4
H     8.6   -5.2   -4.5
H    -6.6    8.4   -3.0
H    -0.4  -10.8   -2.2
N    -0.5  -10.6   -3.2
N   -10.7   -2.9    0.7
H     9.0    5.1    4.1
H     2.9   10.7   -1.1
H    -1.2   10.1    4.4
H   -10.6   -3.1    1.7
I    -7.1   -7.6    4.1
I     1.2    8.4    7.3
H     6.6    2.3    8.8
C    -6.5    8.3   -4.1
H    11.0    2.1   -0.6
H    -7.8   -3.4   -7.4
H    -6.1   -5.8   -7.5
H    -2.5  -10.2    4.2
N     6.9   -3.0    8.4
P     8.7    4.2   -6.0
I    -5.8   -9.8    0.3
N    -9.8    3.7    4.5
H     7.7   -2.3    8.1
H    -4.9   -9.5    4.1
I    -5.8    5.7    8.0
P     1.5    6.1    9.6
I    -8.9   -7.3   -0.5
H    10.5   -4.7    0.1
N   -11.4    1.6   -0.8
I    10.1   -3.9    4.0
I     6.7   -8.6   -3.7
H     7.2   -3.9    8.1
P    -6.0    8.0    5.8
C   -10.8   -4.1   -0.1
H   -11.3    1.6   -1.9
I    -2.2    1.5   11.3
H    -5.8    9.0   -4.4
H     8.3   -6.8   -4.4
N    -7.8    0.7   -8.6
N    -2.7    1.9  -11.2
H   -10.9   -3.9   -1.1
H     5.3   -9.5    4.1
H    -6.3    9.8    0.1
P     1.1    6.2   -9.9
I    -0.0  -11.7    0.1
C    -7.6   -4.4   -7.8
H    -2.4    0.9  -11.4
H   -11.5   -2.3    0.6
I   -10.3   -3.9    4.0
H     1.5   -3.3   11.2
H    -8.1    1.7   -8.3
H    -9.4   -5.5   -4.4
I    -8.0   -4.3    7.5
H    -4.4  -10.6    2.8
H    -2.5    8.8   -7.5
H    -2.7    9.7   -6.2
N     9.0   -6.1   -4.7
N     1.9   -4.3   10.9
I   -11.0    1.6   -4.3
H    -2.0    2.6  -11.5
I     3.5   10.7    4.0
I     9.3   -0.7    7.5
H    -8.6    0.1   -8.3
I     0.7   -8.8    8.0
H    -9.9    3.8    5.5
H    10.9    2.8    4.2
H   -11.7    2.6   -0.6
I     2.7    8.4   -8.2
H     3.2   11.5    1.7
N    10.5    3.7    4.5
H   -11.0    4.0    2.8
I     0.9   -1.1   12.0
I    11.5    0.6    3.4
I     2.3    3.4   11.4
C    -4.6  -10.5    3.8
H     6.9   -3.0    9.5
N     3.1   11.7    0.7
H   -12.1    0.9   -0.5
N    -3.3  -10.8    4.5
I     1.4   -4.0  -11.4
P    -1.4   11.9   -2.1
I     1.5   11.6   -3.7
I   -10.0    6.0   -3.7
H    -8.5    7.7   -4.4
H    -8.4   -5.1   -7.4
H   -10.2   -6.2   -3.0
H    10.2   -6.2   -3.0
I    -8.9    3.9   -7.6
I     7.8   -6.2    7.3
I     2.7    0.6  -12.0
H    -7.7    0.7   -9.6
H     5.7  -10.6    2.8
H     1.2   -5.0   11.3
H     9.1   -6.2   -5.8
I    -1.7   -1.3  -12.2
H     3.9   -3.7   11.2
H    10.5    3.8    5.5
N    -7.8    8.5   -4.7
N    -2.7    9.7   -7.2
H    -7.6   -4.4   -8.8
H    -4.3    4.9   10.6
C   -11.1    4.0    3.8
I     4.7   -8.0   -8.3
H    -4.8    1.5  -11.5
C    -0.7  -11.8   -4.0
I    10.3    6.0   -3.7
H     2.3   12.3    0.6
C     5.6  -10.5    3.8
C   -10.1   -6.3   -4.1
H   -11.7   -4.7    0.3
H    -3.3  -10.8    5.5
H    -0.8  -11.6   -5.0
I     7.2    9.7   -3.8
C    -4.0    2.2  -11.8
C    -7.2   10.4   -0.1
H     7.4    1.9  -10.1
H    -4.3    3.2  -11.5
I    -7.6   -9.3   -4.3
I    -3.5   -3.0   11.9
H    -2.8  -12.4   -0.6
H    -8.1    9.9    0.3
C    10.3   -6.3   -4.1
H     5.4    1.5  -11.5
H    -7.7    8.4   -5.8
I    -5.4   -8.0   -8.3
H    11.3    4.4    4.2
C     3.2   -4.5   11.6
H     4.0   12.2    0.4
I    -0.4    4.3  -12.1
I     2.2  -12.1    3.6
H     8.5    8.5    4.4
H    -3.3    4.0   11.8
I   -10.2   -1.7   -7.7
H    -2.9  -11.8    4.2
H    -9.7   -7.3   -4.3
P    -8.7   -9.4    1.8
I    10.2   -1.7   -7.7
H     4.9  -11.3    4.2
H    -2.0   10.4   -7.5
I    12.9   -1.6   -0.3
H    -4.8    9.5   -7.4
H    -1.5  -12.4   -3.6
H    12.3    2.2   -3.6
P    -2.1   -8.5    9.6
H    -7.3   10.7   -1.1
H    -3.3    7.1  -10.4
I     9.2   -8.4    3.6
P     5.1  -10.4   -6.0
P    -9.6   -6.6    5.8
H     0.3  -12.4   -3.9
H   -11.9    3.3    4.2
H     5.0  -12.0   -0.6
P    -5.1  -10.4   -6.0
H     2.3   -6.3  -11.2
H     3.6   -5.5   11.3
H    -5.1  -12.0   -0.6
H    -9.9    7.9    3.2
H     5.9    4.9   10.6
H    11.0   -5.5   -4.4
H    -5.3  -11.3    4.2
I     3.6    5.1  -11.6
P    11.7   -1.7    5.7
