         400
 sphere cut out from bulk 
I    -1.9   -1.0   -0.3
I     1.4    1.7   -0.2
P     0.5   -0.7    2.1
P     0.5   -0.6   -2.2
I     2.0   -2.5   -0.2
H    -3.4    1.2    0.1
H     0.7    3.6    1.4
I    -1.4    1.3    3.5
H    -2.9    2.1   -2.0
N    -4.0    2.0   -0.2
H     4.0    1.9    0.2
H    -3.5   -2.2    1.8
H    -3.5    2.9    0.2
I    -1.0    1.3   -4.3
H     1.1    3.8   -2.7
C    -4.0    2.0   -1.7
I     3.1   -0.0    3.6
I    -0.3   -3.3    3.6
H    -3.6   -2.3   -2.4
N     0.5    4.6    1.8
H    -4.4    1.0   -2.0
H     0.9   -4.9    0.4
H    -0.4    4.9    1.4
I     3.0   -0.2   -4.2
H     4.6    1.0   -2.0
I    -0.4   -2.9   -4.3
H    -0.5    4.5   -2.7
H    -4.9    1.9    0.2
H    -0.1   -5.0   -1.8
H    -0.4    4.0    3.6
N     5.0    2.0   -0.2
H     4.0   -3.2    1.8
C    -4.0   -3.1    2.2
H    -3.4   -4.0    1.8
C     0.5    4.6   -3.0
H     1.3    5.2    1.4
H     1.4    4.0    3.6
H     4.4    2.8   -2.0
C     0.5    4.5    3.3
C     5.0    2.0   -1.7
H     5.6    1.2    0.1
H     4.0   -3.3   -2.5
H    -4.6    2.8   -2.0
I    -2.4    5.3   -0.3
H    -3.4   -4.0   -2.5
N     0.5   -5.8    0.0
C    -4.0   -3.2   -2.8
H    -3.0   -3.1    4.0
H    -0.5   -5.8    0.4
C     0.5   -5.8   -1.5
H     0.1    3.7   -4.8
H     5.5   -2.2    1.8
H     5.5    2.9    0.2
H    -5.0   -3.2    1.8
H     1.6   -5.7   -1.8
N    -4.0   -3.1    3.7
H     1.0    5.5   -2.7
C     5.0   -3.1    2.2
H    -3.0   -3.1   -4.6
H     5.4   -2.3   -2.4
H    -4.5   -2.3    4.0
N     0.5    4.6   -4.5
H     4.5   -2.3    4.0
H    -5.0   -3.3   -2.5
C     5.0   -3.2   -2.8
H     0.5    5.5    3.7
P     0.5   -0.6   -6.6
N    -4.0   -3.2   -4.3
H     1.1   -6.6    0.4
H     6.1    2.1   -2.0
H     4.5   -2.4   -4.6
I    -3.1   -6.1   -0.3
H     1.5    4.6   -4.9
I    -5.8   -0.0    3.6
H    -4.5   -2.4   -4.6
N     5.0   -3.1    3.7
P    -4.0    2.0    5.4
H     0.1   -6.8   -1.8
H     5.6   -4.0    1.8
I     7.1   -1.0   -0.3
H    -4.4   -4.0    4.0
H    -0.4   -0.0    7.2
H     4.5   -4.0    4.0
H    -3.0    2.0   -6.3
H    -0.0    5.4   -4.9
I     2.6    6.8   -0.1
I     4.3    4.6    3.6
N     5.0   -3.2   -4.3
H     1.4    0.0    7.2
I    -6.0   -0.2   -4.2
H     0.5   -1.6    7.2
H     5.6   -4.0   -2.5
I    -7.0   -2.5   -0.2
I    -4.7    4.6    3.6
C     0.5   -0.5    7.5
H    -4.4   -4.1   -4.7
H     0.3   -4.8   -5.9
P     5.0    2.0    5.4
I     4.1    4.9   -4.2
H     4.6   -4.1   -4.7
H    -4.4    0.9   -6.3
I    -7.6    1.7   -0.2
H     4.6    0.9   -6.3
H     6.0   -3.1    4.0
I     3.2   -6.3    3.6
P     0.5   -5.8    5.4
I    -3.3   -0.6    7.3
C    -4.0    1.9   -6.6
I    -4.9    4.9   -4.2
H     4.4    2.7   -6.3
I     2.5    2.7    7.3
H     6.0   -3.1   -4.6
H    -4.6    2.7   -6.3
I     7.5    1.3    3.5
I     1.4    2.0   -8.1
I     3.4   -6.5   -4.2
I    -2.1   -1.2   -8.1
I     6.6    5.3   -0.3
I    -2.1    4.0    7.2
I     5.9   -6.1   -0.3
P    -4.0    7.2   -2.2
P    -3.9    7.3    2.1
C     5.0    1.9   -6.6
I    -1.2   -7.7    3.5
N     0.5   -5.8   -6.3
H     1.4   -6.1   -5.9
I     2.3   -3.9    7.4
I    -1.2    7.9    3.5
H    -0.2   -6.4   -5.9
I     2.5   -2.5   -8.0
P    -8.5   -0.6   -2.2
P    -8.5   -0.7    2.1
I    -1.6    7.6   -4.3
H     6.0    2.0   -6.3
H     0.1    8.8   -1.8
P     5.0    7.2   -2.2
H     1.1    9.0    0.4
N     0.5   -0.6    9.0
P     5.1    7.3    2.1
H    -7.9    3.8   -2.7
H    -8.3    3.6    1.4
I     2.6   -8.8   -0.1
I     8.0    1.3   -4.3
I    -1.6   -8.0   -4.3
I    -2.2   -5.3    7.2
H    -3.5    1.0   -8.5
I    -5.8   -6.3    3.6
N    -4.0    1.9   -8.1
I     5.7   -0.6    7.3
H    -7.6    4.0    3.6
I    -6.4    6.8   -0.1
H    -7.7    5.2    1.4
H    -8.0   -4.9    0.4
P    -3.9   -8.3    2.1
H     0.4    0.4    9.4
H    -0.2   -1.2    9.4
P    -4.0   -8.4   -2.2
H     1.4   -0.9    9.4
H     4.0    1.9   -8.5
I    -5.6   -6.5   -4.2
H    -7.4   -5.7   -1.8
H    -3.5    2.8   -8.5
H    -0.4   -5.2   -8.1
C     0.5   -5.7   -7.8
H     1.4   -5.2   -8.1
N     5.0    1.9   -8.1
H    -0.5    9.7    0.4
P     9.5   -0.7    2.1
N    -8.5    4.6    1.8
I    -2.2    5.0   -8.1
P     9.5   -0.6   -2.2
N     0.5    9.8    0.0
P     0.6    4.6    8.7
C     0.5    9.8   -1.5
H    -3.5    6.2    6.8
I     8.6   -3.3    3.6
I    -3.1    9.5   -0.3
P     5.1   -8.3    2.1
H     8.5    4.5   -2.7
H     8.6    4.9    1.4
H    -5.0    1.9   -8.5
P     5.0   -8.4   -2.2
H    -7.5    4.6   -4.9
I     8.6   -2.9   -4.3
C    -8.5    4.6   -3.0
P    -4.0   -3.3    8.7
H     1.6    9.8   -1.8
I    -6.5    2.7    7.3
H    -8.0    5.5   -2.7
C    -8.5    4.5    3.3
H     5.5    1.0   -8.5
H     8.6    4.0    3.6
N    -8.5   -5.8    0.0
I     1.4    7.2    7.2
H    -7.9   -6.6    0.4
H     8.5   -5.8    0.4
C    -8.5   -5.8   -1.5
H     8.9   -5.0   -1.8
H     1.0  -10.0   -2.7
H     9.7    3.6    1.4
H    -7.6    0.0    7.2
H     5.5    2.8   -8.5
I    -3.3   -5.8   -8.1
I     3.2    9.3    3.6
H    -9.1   -5.0   -1.8
P    -4.0    7.1   -6.6
I     2.3    6.5   -8.0
I    -9.3   -3.3    3.6
I    10.4    1.7   -0.2
P     5.0   -3.3    8.7
H     1.3  -10.4    1.4
I    -2.4  -10.3   -0.3
I     3.4    9.1   -4.2
H     0.5   -6.8   -8.2
I    -6.5   -2.5   -8.0
N    -8.5    4.6   -4.5
H     4.0    7.1    6.8
H    -9.4    4.9    1.4
I    -6.7   -3.9    7.4
I    -9.4   -2.9   -4.3
H     0.5  -10.0    3.7
I     6.9   -1.2   -8.1
N     9.5    4.6    1.8
H     0.9   10.7    0.4
I     6.9    4.0    7.2
H    -0.1   10.6   -1.8
P    -8.5   -0.6   -6.6
H    -8.5    5.5    3.7
H     5.5    6.2    6.8
H    -8.9    3.7   -4.8
H    -9.3    4.0    3.6
H    -0.4  -10.7    1.4
H    -3.5   -7.6    6.8
N    -4.0    7.1    7.2
H    -9.5    4.5   -2.7
I    -6.4   -8.8   -0.1
P     5.0    7.1   -6.6
H    -0.2    9.2   -5.9
P     0.5    4.6   -9.9
I   -10.0    1.3   -4.3
H     9.1    3.7   -4.8
I   -10.9   -1.0   -0.3
C     9.5    4.6   -3.0
H    -5.0    7.1    6.8
C     9.5    4.5    3.3
H    -3.5    8.0    6.8
H     9.9   -4.9    0.4
I   -10.4    1.3    3.5
H    10.1    3.8   -2.7
H    -9.5   -5.8    0.4
I     1.4   -8.3    7.2
N     9.5   -5.8    0.0
P    -4.0   -3.2   -9.9
I     5.9    9.5   -0.3
N     0.5  -11.0    1.8
H    -8.5   -1.6    7.2
P     0.5    9.8    5.4
H     8.6   -0.0    7.2
H     1.4    9.5   -5.9
C     9.5   -5.8   -1.5
I    -0.3    2.3   11.0
I     6.8   -5.3    7.2
H    -3.0    2.1   10.7
N     5.0    7.1    7.2
I    11.0   -2.5   -0.2
I    -7.6    2.0   -8.1
H    -0.0  -10.2   -4.9
H    -8.9   -6.8   -1.8
C    -8.5   -0.5    7.5
H    -7.6   -6.1   -5.9
H    -0.5  -11.1   -2.7
C     0.5  -11.0   -3.0
I    -1.6   -2.8   11.0
I     7.4    7.6   -4.3
H     9.1   -6.8   -1.8
I    -5.6    9.1   -4.2
N     9.5    4.6   -4.5
I     5.7   -5.8   -8.1
I     7.8   -7.7    3.5
P    -4.0   -8.5   -6.6
I    -5.8    9.3    3.6
H    -8.7   -4.8   -5.9
H     9.0    5.4   -4.9
P     5.0   -3.2   -9.9
C     0.5  -11.1    3.3
H     0.0   -5.0   10.4
H    -9.0    5.4   -4.9
H    -4.4    1.1   10.7
H    10.3    5.2    1.4
I     7.8    7.9    3.5
P    -8.5   -5.8    5.4
H     9.5    5.5    3.7
H     4.0   -8.5    6.8
P     9.5   -0.6   -6.6
H     5.5   -7.6    6.8
N     0.5    9.8   -6.3
H     0.5    0.3  -11.6
H     4.6    1.1   10.7
I     3.4   -1.3   11.1
H     9.9    5.5   -2.7
I     6.8    5.0   -8.1
I     7.4   -8.0   -4.3
H    10.4    4.0    3.6
H    -0.4   -1.2  -11.7
H    -4.4    6.1    9.0
N    -4.0   -8.5    7.2
H    -9.4   -0.0    7.2
H     4.6    6.1    9.0
H     1.4   -1.2  -11.7
H     5.5    8.0    6.8
P     5.0   -8.5   -6.6
C    -4.0    7.1    8.7
N    -4.0    2.0   11.0
H    -2.9    7.2    9.0
N     0.5  -11.0   -4.5
H     4.5    2.8   10.7
H    -4.5    2.8   10.7
H    -5.0   -8.5    6.8
H    -7.9    9.0    0.4
H     0.5    8.8   -8.2
H     9.5   -1.6    7.2
H     9.3   -4.8   -5.9
H    10.1   -6.6    0.4
H     1.5   -5.8   10.5
N    -8.5   -5.8   -6.3
C     0.5   -0.7  -12.0
H     0.7  -12.0    1.4
H    -3.5   -9.3    6.8
H     1.5  -11.0   -4.9
H    -7.6   -0.9    9.4
H    10.6   -5.7   -1.8
C     9.5   -0.5    7.5
H    -0.4  -11.6    3.6
H     1.1  -11.8   -2.7
N     5.0   -8.5    7.2
I    -1.2    2.7  -11.8
I     4.1  -10.7   -4.2
H     1.4  -11.6    3.6
H    -3.4   11.6    1.8
H     0.3   10.7   -5.9
I     6.6  -10.3   -0.3
H    -3.4   11.5   -2.5
H    -7.6   -5.2   -8.1
C     5.0    7.1    8.7
N     5.0    2.0   11.0
N     0.5   -5.8   10.8
I    -6.7    6.5   -8.0
H   -11.9    2.1   -2.0
I     2.3   -9.1   -8.0
I     4.3  -11.0    3.6
H     8.8   -6.4   -5.9
N    -8.5   -0.6    9.0
P     9.5   -5.8    5.4
H     6.0    2.1   10.7
I    -4.7  -11.0    3.6
H     0.1   -6.7   10.5
H    10.5    4.6   -4.9
H    -7.4    9.8   -1.8
H   -12.4    1.2    0.1
I    -4.9  -10.7   -4.2
I    -5.6   -1.3   11.1
I    -1.5   -3.9  -11.8
I     4.3   -0.6  -11.7
I   -11.3    5.3   -0.3
I     3.0    5.0   11.1
C     0.5    9.8   -7.8
H     4.4   -7.6    9.0
I    -4.7   -0.6  -11.7
H    10.4    0.0    7.2
H    -8.9    8.8   -1.8
H    -2.9   -8.4    9.0
H    -4.6   -7.6    9.0
I    12.1   -0.0    3.6
I    12.0   -0.2   -4.2
H    -9.2   -6.4   -5.9
I    -2.2   10.2    7.2
I    -7.6    7.2    7.2
C    -4.0   -8.5    8.7
N     9.5   -5.8   -6.3
H     9.1    8.8   -1.8
H    -8.6    0.4    9.4
I     3.2    4.1  -11.7
H     4.4    7.9    9.0
H     5.5   -9.3    6.8
I    -0.9    6.5   11.0
H   -12.5   -2.2    1.8
I    -0.3   12.3    3.6
H    -4.6    7.9    9.0
H     0.1  -11.9   -4.8
H   -12.5    2.9    0.2
C    -8.5   -5.7   -7.8
H     8.6   -5.2   -8.1
H     8.8   -1.2    9.4
N    -8.5    9.8    0.0
H     8.5    9.7    0.4
P    -8.4    4.6    8.7
H   -12.0   -3.1    4.0
C    -8.5    9.8   -1.5
H   -12.6   -2.3   -2.4
H     6.1    7.2    9.0
