         400
 sphere cut out from bulk 
I     1.0   -0.2    1.3
P     1.0    2.1   -1.0
I    -1.5    0.1   -2.1
P    -1.5   -2.2    0.2
I    -1.5    3.6    0.2
I     1.0   -3.7   -1.1
P     3.5   -2.1    0.3
I     3.5    0.0   -2.2
I    -4.0   -0.2    1.3
H     0.4   -0.1    4.4
P    -4.0    2.1   -1.1
H    -1.7   -0.1   -4.6
I    -1.5   -3.7    3.0
I     3.5    3.6    0.2
H     2.2    0.2    4.6
C     1.2   -0.2    5.1
H     0.8    4.8    1.8
I     0.9    3.4   -3.8
H    -3.7    0.2    3.7
H     1.6   -2.2    4.6
I    -4.0   -3.7   -1.0
H     2.0    4.3    3.0
H     2.7   -3.8   -3.2
I     3.3   -3.5    3.1
H     3.4    0.8   -4.6
H    -2.9    1.0    4.9
N    -1.7   -0.3   -5.6
N     1.4   -1.6    5.5
C     1.3    5.1    2.7
H    -0.9   -0.9   -5.8
H    -0.7   -4.5   -3.9
N    -3.7    0.4    4.8
I     5.9   -0.2    1.3
H     1.0    0.4    6.0
H    -2.8   -1.4    5.3
H    -1.6   -5.4   -2.6
I    -1.2    2.8    5.4
H    -0.2    4.7    4.1
H     0.5   -2.0    5.9
H     2.5    2.0   -5.3
H    -3.2    4.4    3.1
H    -0.8    1.6   -6.1
P     5.9    2.1   -1.1
H    -2.5   -0.8   -5.8
C    -1.6   -5.1   -3.6
H    -2.5   -4.5   -3.8
N     3.3    1.4   -5.4
I    -4.0    3.4   -3.9
N     3.2   -4.1   -4.1
C    -1.7    1.0   -6.3
H     2.5   -3.8   -4.9
N     0.4    5.5    3.8
C    -3.7   -0.8    5.6
H    -0.7    5.2   -4.3
H     2.1   -1.7    6.2
H     2.0    6.0    2.5
H    -0.2   -5.8    3.5
H    -2.6    1.6   -6.1
I    -6.4    0.0   -2.2
P    -6.4   -2.1    0.3
I     0.8   -2.6   -6.3
H    -4.5    1.0    5.0
H     4.0   -3.6   -4.2
H     2.0   -6.1    2.5
H    -4.1    5.2    1.8
H     2.4   -0.0   -6.6
C    -4.1    5.0    2.8
I     5.9   -3.7   -1.0
H    -3.3   -5.3    3.4
H    -2.4    5.1   -4.3
H     4.2    2.0   -5.4
I     3.7    2.7    5.5
H    -4.6   -1.4    5.4
H     6.1    0.2    3.7
H    -0.2    6.3    3.5
H     4.9    4.4    3.1
H    -5.0    4.4    3.1
H    -1.6    6.7   -2.6
I    -6.4    3.6    0.2
H     5.4    1.0    5.0
N    -1.6    5.8   -4.5
C     3.3    0.6   -6.7
H     0.9    5.8    4.7
H     0.7   -7.3    1.8
H    -3.6   -0.6    6.6
C     1.3   -7.0    2.7
H     2.5    6.0   -4.0
N     0.4   -6.6    3.8
H    -1.7    0.8   -7.4
H     2.5   -6.1   -4.0
H     5.3   -1.4    5.4
C     3.4   -5.6   -4.1
H     4.1   -5.8   -3.2
I     5.9    3.4   -3.9
N     6.2    0.4    4.8
N    -1.6   -6.3   -4.5
H     4.2   -0.0   -6.7
H     0.9   -6.3    4.7
I    -4.2   -2.5   -6.3
H    -6.5    0.8   -4.6
H     5.8    5.2    1.8
H    -4.9   -5.3    3.5
C    -1.6    7.0   -3.6
N    -4.1   -5.9    3.7
H     5.0   -5.3    3.5
H    -5.9   -3.6   -4.2
I    -6.6   -3.5    3.1
H    -5.7    2.0   -5.4
C     5.8    5.0    2.8
H    -0.7   -6.9   -4.3
H     4.1    6.3   -3.2
H    -4.1   -6.9    1.8
H    -1.6    6.0   -5.5
N    -4.1    6.2    3.7
H     3.2    1.2   -7.5
H    -3.3    6.8    3.4
H    -1.6   -6.1   -5.5
C     6.2   -0.8    5.6
C     3.5    6.5   -4.1
H    -0.2   -7.4    4.1
I    -1.2   -2.2    8.1
H    -2.4   -7.0   -4.3
H    -0.7    7.6   -3.9
I     1.1    8.4   -1.1
I    -1.6   -8.5    0.2
H     6.7    4.4    3.1
H     1.9   -7.8    3.0
N    -6.5    1.4   -5.4
I     8.4    0.1   -2.1
H     3.9   -5.8   -5.0
H    -4.0    6.0    4.7
H     7.0    1.0    4.9
H    -4.0   -6.1    4.7
I    -6.2    2.7    5.5
C    -4.1   -7.1    2.8
P     8.4   -2.2    0.2
H    -7.2   -3.8   -3.2
I     5.7   -2.5   -6.3
H    -5.8   -5.8   -3.2
H    -2.5    7.6   -3.8
H    -5.7   -0.0   -6.7
N    -6.7   -4.1   -4.1
H    -3.2   -7.7    3.1
H     3.9    6.3   -5.0
H     7.1   -1.4    5.3
H    -7.7    0.2    4.6
I    -1.4    8.4    3.0
I    -8.9   -0.2    1.3
N     5.8   -5.9    3.7
H    -4.9    6.8    3.5
H     6.6   -5.3    3.4
I     8.4    3.6    0.2
H     5.0    6.8    3.5
H     5.8   -6.9    1.8
H     6.3   -0.6    6.6
H    -5.8    6.3   -3.2
I     3.4   -8.5    0.2
I     3.7   -2.2    8.1
P    -8.9    2.1   -1.0
N     5.8    6.2    3.7
P    -1.2    4.1    8.2
H     2.7    8.3   -3.2
H    -7.4    2.0   -5.3
I     0.8    2.3   -9.0
I    -4.0    8.4   -1.0
I     1.2   -6.0    7.1
H     8.2   -0.1   -4.6
H     7.4   -0.8   -5.8
C    -6.6    0.6   -6.7
C    -6.5   -5.6   -4.1
H     7.4   -4.5   -3.8
I     1.3    6.1    7.1
H    -7.9    4.3    3.0
I     0.9   -8.7   -3.8
N     3.2    8.0   -4.1
H    -7.4   -3.8   -4.9
C     5.8   -7.1    2.8
H     7.3    1.6   -6.1
H     5.9   -6.1    4.7
H     5.9    6.0    4.7
I    -8.9   -3.7   -1.1
H     4.9   -7.7    3.1
I     8.4   -3.7    3.0
I     3.3    8.6    3.1
H    -5.0   -7.7    3.1
H    -8.3   -2.2    4.6
H    -6.0   -5.8   -5.0
P     0.8   -4.1   -9.0
P     3.7    4.1    8.2
I     1.2    2.6    9.5
N     8.2   -0.3   -5.6
H     2.5    8.3   -4.9
H    -5.9    6.3   -5.0
H    -7.5   -0.0   -6.6
P    -1.4    9.9    0.2
C    -8.7   -0.2    5.1
C    -6.4    6.5   -4.1
I    -3.7   -6.0    7.1
H     7.5    5.1   -4.3
H    -7.8   -1.7    6.2
I    -1.7   -6.0   -7.9
I    -3.7    6.1    7.1
H     6.6    6.8    3.4
P     0.9  -10.0   -1.0
H    -6.7    1.2   -7.5
I    -1.7    6.1   -7.9
I    -4.2    2.3   -9.0
H    -7.9    6.0    2.5
H     8.3   -5.4   -2.6
N    -8.5   -1.6    5.5
C    -8.5    5.1    2.7
I    -8.9    3.4   -3.8
H    -7.9   -6.1    2.5
H    -7.4    6.0   -4.0
P     1.2   -3.8    9.5
I     5.9    8.4   -1.0
I    -4.0   -8.7   -3.9
H     4.1    8.6   -4.2
H    -7.4   -6.1   -4.0
C     8.3   -5.1   -3.6
C     8.2    1.0   -6.3
H    -9.5   -0.1    4.4
I     3.2   -6.0   -7.9
I    -6.2   -2.2    8.1
I    -3.7    2.6    9.5
H    -9.1    4.8    1.8
I     3.3    6.1   -7.9
I     8.6    2.8    5.4
P     3.5   10.0    0.3
H     6.7   -7.7    3.1
I    -6.4   -8.5    0.2
H    -8.9    0.4    6.0
P    -4.2   -4.0   -9.0
H     9.0   -0.9   -5.8
I    -1.6   -2.5  -10.4
I    -1.3   -9.3    5.4
P    -3.7   -3.7    9.5
P    -4.0  -10.0   -1.1
I     5.7    2.3   -9.0
H     9.2   -4.5   -3.9
I    10.9   -0.2    1.3
H     8.3    6.7   -2.6
N     8.3    5.8   -4.5
H     1.7    9.9    4.6
H     7.5   -7.0   -4.3
H     9.1    1.6   -6.1
H     8.2    0.8   -7.4
P    10.8    2.1   -1.0
P    -6.2    4.1    8.2
P    -1.7    3.8  -10.3
I     3.2   -2.5  -10.4
H    -5.8    8.6   -4.2
I     5.8   -8.7   -3.9
I     6.2   -6.0    7.1
H    10.3   -0.1    4.4
H    -1.2    1.1   11.1
I    -6.6    8.6    3.1
N    -6.7    8.0   -4.1
H    -9.4   -2.0    5.9
I     6.2    6.1    7.1
H     7.4    7.6   -3.8
I    -9.1   -2.6   -6.3
H     9.2    5.2   -4.3
N     8.3   -6.3   -4.5
C    -8.6   -7.0    2.7
P     5.7   -4.0   -9.0
I     0.8    9.5   -6.3
H    -7.2    8.3   -3.2
P     3.2    3.8  -10.3
C     8.3    7.0   -3.6
I     3.7   -9.4    5.5
H     9.7    4.7    4.1
P    -1.3   -8.0    8.2
P   -11.3   -2.2    0.2
H    -8.0   -7.8    3.0
N    -9.5    5.5    3.8
I    10.9   -3.7   -1.1
I     6.2    2.6    9.5
I   -11.4    0.1   -2.1
H     8.3    6.0   -5.5
H    -8.9    5.8    4.7
H     2.5  -10.1   -5.3
H     3.7    1.5   11.0
H     8.3   -6.1   -5.5
P     5.9  -10.0   -1.1
H     0.5   10.1    5.9
H   -10.1    4.7    4.1
H    -9.2   -7.3    1.8
H    10.6    4.8    1.8
H     9.7   -5.8    3.5
P    -6.4   10.0    0.3
I     8.3   -8.5    0.2
N     1.4   10.5    5.5
P     6.2   -3.7    9.5
H    -9.0   -6.3    4.7
I    -6.7   -6.0   -7.9
I   -11.4    3.6    0.2
I    10.8    3.4   -3.8
I    -6.6    6.1   -7.9
I     1.0   11.9    1.3
P     3.7   -8.0    8.2
I    -1.2   -5.7   10.6
P     0.8    8.0   -9.0
H    10.4   -2.0    5.9
H    -7.3    8.3   -4.9
I     8.7   -2.2    8.1
H   -10.1   -5.8    3.5
H     9.7    6.3    3.5
H   -10.6   -4.5   -3.9
H     4.2  -10.1   -5.4
I    -4.2    9.6   -6.3
N    -9.5   -6.6    3.8
H    -0.8  -10.5   -6.1
H     2.8    0.2   11.9
C    11.1   -0.2    5.1
H    -2.7   10.7    5.3
H     9.1   -6.9   -4.3
H   -10.7   -0.9   -5.8
I    -8.8    8.4   -1.1
I     8.4    8.4    3.0
H     2.1   10.4    6.2
C    -1.2    1.3   12.1
N    10.3    5.5    3.8
I   -11.4   -3.7    3.0
I    -1.6  -12.0   -2.1
H   -10.0    6.3    3.5
H   -10.7    1.6   -6.1
I     0.9  -12.3    1.3
H   -11.5   -0.1   -4.6
H    -2.6  -10.5   -6.1
I    -1.2    6.4   10.6
C     3.7    0.9   11.8
H    10.9    0.4    6.0
N     3.3  -10.7   -5.4
I    -1.5   12.2   -2.1
H    -2.9  -11.1    4.9
I    -6.2   -9.4    5.5
I     1.3   -2.3   12.2
H     0.6    0.1  -12.5
H     9.2    7.6   -3.9
H    -0.3    1.9   12.4
H   -10.6    5.2   -4.3
I     3.7   -5.7   10.6
I    -6.7   -2.5  -10.4
H    -4.1   -0.9  -11.9
H     1.7   -2.0  -12.3
H    11.5   -2.2    4.6
N    11.3   -1.6    5.5
P     8.6    4.1    8.2
I    -3.9   11.9    1.3
H     3.4  -11.3   -4.6
C    11.2    5.1    2.7
H     4.6    0.2   11.8
I    10.7   -2.6   -6.3
I   -11.1    2.8    5.4
H    -0.8   11.2   -5.8
H    -6.2    1.5   11.0
H    -0.4   -0.6   12.7
P     1.3    8.3    9.5
I    -8.7   -6.0    7.1
I     3.4  -12.1   -2.2
H    -2.1    1.9   12.4
I     5.7    9.6   -6.3
I    -8.6    6.1    7.1
H    -4.5   10.7    5.4
I     0.8    5.8  -11.3
H    -5.7  -10.1   -5.4
P    -4.2    8.1   -9.0
N    10.3   -6.6    3.8
H     0.4   12.0    4.4
I     3.5   12.1   -2.2
H     0.0   -2.2  -12.6
I    -1.2    9.9    8.1
P    -6.7    3.8  -10.3
N   -11.6   -0.3   -5.6
I     8.2   -6.0   -7.9
H     9.7   -7.4    4.1
H    -2.0   -0.6   12.7
C    -1.7  -11.1   -6.3
H    -5.3    0.2   11.8
I     3.7    6.4   10.6
H    -2.5   11.3   -5.8
H    12.1    0.2    4.6
H     0.4  -12.2    4.4
H   -11.5   -5.4   -2.6
H    -1.6   12.0   -4.6
I     8.2    6.1   -7.9
H    11.8    4.3    3.0
N    -1.2    0.0   12.9
H     2.1  -11.9    4.6
I     0.8   -6.3  -11.3
I    -4.0  -12.3    1.3
H    10.6   -7.3    1.8
H    -4.5  -11.1    5.0
I    -3.7   -2.3   12.2
H    -3.8  -11.9    3.7
I    -9.1    2.3   -9.0
P     8.5    9.9    0.2
C     1.3   11.9    5.1
P    -6.2   -8.0    8.2
