         400
 sphere cut out from bulk 
I    -0.6   -1.0   -0.0
P     1.2    1.8    0.0
H     0.8   -1.9    2.0
H     0.7   -2.0   -2.0
H    -2.3    1.4    2.3
I     1.1    1.6    3.2
N     1.5   -2.4    2.6
I     1.4    1.6   -3.2
I    -1.4    3.6   -0.2
I     3.9   -0.1    0.2
N     1.4   -2.5   -2.6
H    -2.0    1.8   -3.0
H     2.2   -1.7    2.9
H     2.0   -3.1    2.0
H     2.0   -1.9   -3.1
H     1.9   -3.2   -2.0
P    -3.3   -2.8    0.0
H    -4.1    1.0   -1.9
C    -2.9    2.1    2.9
C     0.8   -3.1    3.7
C     0.5   -3.4   -3.5
H     0.3   -2.3    4.3
C    -3.0    2.1   -3.4
H    -0.1   -2.7   -4.2
H    -0.1   -4.0   -3.0
H    -2.2    2.8    3.5
H    -3.8    0.1   -3.3
H    -3.6    2.7    2.3
H     0.1   -3.8    3.4
N    -4.0    1.1   -3.0
I    -5.1   -0.1    0.2
I     2.9   -4.5   -0.0
I    -3.4   -2.6   -3.2
H    -3.3    3.0   -3.0
H     4.9    1.0   -1.9
I     3.0    4.5   -0.0
H     4.0    1.3   -3.3
I    -3.5   -2.9    3.2
H    -3.1    0.8    4.5
N    -3.7    1.3    3.9
H    -4.3    0.7    3.4
I    -1.5   -5.4   -0.2
H    -2.9    2.1   -4.5
H    -0.0    5.0   -3.0
H     4.6    0.7    3.4
H     1.6   -3.6    4.3
H     1.2   -4.0   -4.2
N     5.0    1.1   -3.0
H    -4.9    1.3   -3.3
H     5.2    0.1   -3.3
H     0.2    5.2    3.4
P     5.7   -2.8    0.0
H     5.4    2.7    2.3
H     2.0    5.8   -2.0
H     2.1    5.9    2.0
H    -4.2    2.0    4.5
I    -0.7   -0.9   -6.5
I    -1.6   -0.3    6.3
P     1.0    1.6    6.4
H     1.3    5.0   -4.2
C     0.6    5.6   -3.5
N     5.3    1.3    3.9
P     1.2    1.7   -6.4
H     4.7    2.0    4.5
I     5.5   -2.6   -3.2
P    -3.2    6.2    0.0
I     5.5   -2.9    3.2
C     0.9    5.9    3.7
C     6.1    2.1    2.9
N     1.5    6.4   -2.6
I     2.9   -1.0    6.4
H     5.7    3.0   -3.0
H     1.7    5.4    4.3
H     6.6    1.4    2.3
C     6.0    2.1   -3.4
N     1.6    6.6    2.6
P     1.1   -7.2    0.0
H     0.9    7.0   -2.0
H     0.9    7.1    2.0
I     3.7   -0.2   -6.4
H    -3.4   -5.9   -3.0
I    -6.0    4.5   -0.0
H     5.9    0.8    4.5
I    -1.3    3.7   -6.4
H    -2.4   -6.2    3.5
H     0.0    6.3   -4.2
H    -6.8   -1.7    2.9
I    -6.1   -4.5   -0.0
I    -3.3    6.1    3.2
H    -3.7   -6.3    2.3
I    -0.9    4.1    6.4
P    -3.4   -2.7   -6.4
H     7.0    1.8   -3.0
H     6.0    2.1   -4.5
P    -3.5   -3.0    6.4
I    -3.3    6.4   -3.2
H    -7.0   -1.9   -3.1
H    -7.0   -3.1    2.0
H    -7.1   -3.2   -2.0
H     0.5    6.7    4.3
I    -0.5    8.0   -0.0
P    -7.8    1.8    0.0
H     2.1    7.1   -3.1
C    -3.0   -6.9    2.9
I     0.9   -7.3    3.2
I     1.3   -7.3   -3.2
I     3.6    3.4    6.3
H    -2.1   -7.2   -3.0
I    -1.0   -4.8    6.4
H     6.7    2.8    3.5
H     2.3    7.3    2.9
I    -5.2   -0.2   -6.4
H    -2.4   -7.5    2.3
N    -7.5   -2.4    2.6
C    -3.1   -6.9   -3.4
I     7.5    3.6   -0.2
I     3.1    4.3   -6.5
I    -7.6    1.6   -3.2
I    -1.4   -5.3   -6.4
I     8.4   -1.0   -0.0
N    -7.6   -2.5   -2.6
P     5.8    6.2    0.0
I     3.0   -4.6   -6.5
H     5.3   -6.3    2.3
H     0.4   -2.3   -8.2
H    -8.2   -1.9    2.0
I    -7.9    1.6    3.2
H     5.6   -5.9   -3.0
H    -8.2   -2.0   -2.0
H    -3.1   -6.9   -4.5
H     1.3   -2.6    8.3
I    -6.0   -1.0    6.4
I     5.6    6.1    3.2
P     5.5   -3.0    6.4
H    -2.7    1.1   -8.5
P     5.6   -2.7   -6.4
I    -5.3    3.4    6.3
H     1.5   -3.5   -8.2
I     5.7    6.4   -3.2
I     3.5   -5.5    6.3
I     7.4   -5.4   -0.2
H    -4.2   -8.0   -1.9
H     3.9   -7.7   -3.3
H    -6.9    5.9    2.0
H    -6.9    5.8   -2.0
H    -7.4   -3.6    4.3
H    -3.4    0.3    8.6
P    -3.4    6.0    6.4
N     0.9   -3.0   -8.9
N    -4.1   -7.9   -3.0
N    -3.8   -7.6    3.9
H    -4.4   -7.0    4.5
C    -8.1   -3.1    3.7
H     4.8   -8.0   -1.9
P    -3.3    6.2   -6.4
H     4.6   -7.0    4.5
C     5.9   -6.9    2.9
I    -9.6   -1.0   -0.0
H    -3.9    2.4   -8.5
H    -7.8   -4.0   -4.2
C     5.9   -6.9   -3.4
H     2.4   -1.5   -9.3
H     6.6   -6.2    3.5
I     7.4   -0.3    6.3
I    -5.9    4.3   -6.5
P     1.1   -7.3   -6.4
N     4.9   -7.9   -3.0
I     4.0    8.9    0.2
C    -8.5   -3.4   -3.5
H    -5.0   -7.7   -3.3
H     4.3    1.6    8.6
I     3.7   -9.0    0.2
C    -3.4    1.6   -9.0
P     0.9   -7.4    6.4
I     0.9    1.8    9.6
C     1.3   -2.6    9.4
I     1.3    1.8   -9.6
H    -3.2   -8.2    4.5
H    -8.6   -2.3    4.3
I    -6.0   -4.6   -6.5
H    -4.7    1.6    8.6
I    -0.7  -10.0   -0.0
H     1.0   -1.6    9.8
H     1.7    5.4   -8.2
N     5.1   -7.6    3.9
H    -4.5   -8.3    3.4
I    -5.4   -5.5    6.3
H     4.5   -8.3    3.4
H     0.3   -3.6   -9.4
H    -7.3    5.4    4.3
H    -7.7    5.0   -4.2
H    -0.7   -3.4    9.5
H     9.7   -2.0   -2.0
H     5.9   -6.9   -4.5
H     9.8   -1.9    2.0
H     5.1    2.4   -8.5
H     8.8   -4.0   -3.0
C    -4.1    1.0    9.2
H     8.9   -2.7   -4.2
N    -7.4    6.6    2.6
I    -5.0    8.9    0.2
P    -7.8    1.7   -6.4
N    -7.5    6.4   -2.6
H    -8.9   -3.8    3.4
C     1.7   -2.2   -9.8
H    -3.9   -8.9   -3.3
H     6.5   -7.5    2.3
H    -6.7    7.3    2.9
H     5.6    0.3    8.6
H    -2.6    2.4    9.7
P    10.1    1.8    0.0
H    -9.0   -2.7   -4.2
H    -4.2    0.9   -9.4
H    -3.6    9.1   -3.3
H    -6.9    7.1   -3.1
P    -8.0    1.6    6.4
H    -9.1   -4.0   -3.0
I    -0.6    8.1   -6.5
H     9.1   -3.8    3.4
P     5.6    6.0    6.4
H     6.9   -7.2   -3.0
I    -5.2   -9.0    0.2
H     0.6    4.4    9.5
N     0.3   -3.6    9.8
H     2.3   -2.9    9.8
C     4.9    1.0    9.2
I    -3.3   -2.7   -9.6
I     8.3   -0.9   -6.5
H     0.5   -4.6    9.5
H     9.3   -2.3    4.3
H    -2.1    2.9   -9.9
H     0.5    6.6   -8.2
H     1.4    6.4    8.3
P     5.7    6.2   -6.4
H     6.3    1.1   -8.5
H     4.8    0.9   -9.4
I    -3.3   -3.0    9.6
I     7.7    3.7   -6.4
H     1.0   -1.6  -10.5
C    -8.0    5.9    3.7
C    -8.3    5.6   -3.5
I    10.0    1.6    3.2
H     9.0    5.0   -3.0
C     9.5   -3.4   -3.5
H    -9.0    5.0   -3.0
I     3.1    8.0    6.4
P    -7.9   -7.2    0.0
H     4.2    0.3    9.8
H    -8.8    5.2    3.4
C     5.6    1.6   -9.0
N     1.0    6.0   -8.9
H     5.1   -8.9   -3.3
H     0.4    5.4   -9.4
N    -2.8    2.3  -10.2
I    -1.5    8.6    6.3
P     1.3   10.8    0.0
N    -3.3    1.8   10.2
H    -3.9    9.9   -1.9
H    -2.2   10.4    2.3
H    -8.1    7.1    2.0
H    -8.1    7.0   -2.0
C     9.8   -3.1    3.7
H    -4.7    0.3    9.8
N    10.3   -2.5   -2.6
I    10.4    1.6   -3.2
I   -10.4    3.6   -0.2
H    -0.6    5.6    9.5
H     5.8   -8.2    4.5
N    10.5   -2.4    2.6
H     5.3    9.1   -3.3
H     9.2    5.2    3.4
H     0.7  -10.9    2.0
H     2.3   -2.9  -10.5
H    -4.2    9.7    3.4
I    -7.7   -7.3   -3.2
I     8.1    4.1    6.4
I     1.2   10.6    3.2
H     0.6  -10.9   -2.0
N    -3.9   10.0   -3.0
H    -3.0    9.7    4.5
H    -2.3    1.6  -10.8
I     1.5   10.6   -3.2
H    -2.7    1.1   10.8
N     0.4    5.4    9.8
I     7.5   -5.3   -6.4
H     2.1  -10.7    2.9
H    -1.9   10.7   -3.0
H     4.7    9.7    3.4
H     5.0    9.9   -1.9
I     8.0   -4.8    6.4
I    -8.0   -7.3    3.2
I    -1.7   -9.3    6.3
C     1.4    6.4    9.4
H    -4.0   -6.6   -8.5
H     0.2   -3.7   10.9
H     1.9  -10.9   -3.1
I     5.7   -2.7   -9.6
H   -11.0    1.8   -3.0
H    -6.6   -1.5   -9.3
H    10.9   -3.2   -2.0
I     3.9    8.8   -6.4
H    10.9   -3.1    2.0
I     5.6   -3.0    9.6
H    11.0   -1.9   -3.1
H     4.2   10.3   -3.3
N    -3.6   10.3    3.9
H    -7.7   -2.6    8.3
H   -11.3    1.4    2.3
N     5.1   10.0   -3.0
H    11.2   -1.7    2.9
H    -7.4   -3.5   -8.2
I     8.5    8.0   -0.0
H    -8.5    6.7    4.3
H    10.2   -4.0   -4.2
I    -9.7   -0.9   -6.5
H    -8.9    6.3   -4.2
C     9.6    5.6   -3.5
H    -3.5    2.7  -10.8
H    -3.9    2.3   10.8
I     3.6   -9.1   -6.4
N     1.4  -11.4    2.6
H     9.0    6.3   -4.2
I    -3.2    6.0    9.6
H     2.4    6.1    9.8
I    -0.8   -9.8   -6.5
H     4.9   -6.6   -8.5
H    -2.2   -6.0   -9.9
C    -2.8   11.1    2.9
N     5.7    1.8   10.2
H     6.4    2.4    9.7
H    -4.8   10.3   -3.3
I   -10.5   -5.4   -0.2
I    -5.9    8.0    6.4
N     1.2  -11.5   -2.6
H    -2.8   -7.9   -8.5
C    -2.8   11.0   -3.4
I    -3.2    6.3   -9.6
P    10.0    1.6    6.4
H    10.6   -3.6    4.3
H    -2.7   -6.6    9.7
I    -5.1    8.8   -6.4
I     0.8   -7.2    9.6
I     1.1   -7.2   -9.6
H     0.2  -11.3    4.3
H   -11.2    2.8    3.5
H     4.2   -7.3    8.6
H     0.3    5.3   10.9
C     1.8    6.8   -9.8
C     9.9    5.9    3.7
P    10.2    1.7   -6.4
H    -8.6   -2.3   -8.2
I     2.8   -9.9    6.4
H     2.5    7.4   -9.3
N     6.2    2.3  -10.2
H    10.3    5.0   -4.2
H     5.1    2.3   10.8
C    -3.5   -7.4   -9.0
P    -3.4  -11.7    0.0
H     9.8    7.0   -2.0
H    -6.7   -2.9    9.8
H    -2.8   11.1   -4.5
N     5.4   10.3    3.9
H    -7.3    5.4   -8.2
H     9.9    7.1    2.0
H     1.1    7.3    9.8
H    -4.8   -7.3    8.6
H     6.0    9.7    4.5
P    10.0   -7.2    0.0
I   -10.6   -0.3    6.3
H     2.4    6.1  -10.5
H     9.4    6.7    4.3
N    -8.1   -3.0   -8.9
I    -9.4    8.0   -0.0
P     1.1   10.5    6.4
H    -0.2  -11.7   -4.2
I    -5.4   -9.1   -6.4
H     1.8  -12.1    2.0
H    -3.5   11.7    2.3
C   -11.9    2.1    2.9
H     1.8  -12.1   -2.0
C    -7.7   -2.6    9.4
C    -7.3   -2.2   -9.8
H     6.9    2.9   -9.9
I    -9.8    4.1    6.4
H    -2.1   11.8    3.5
I    -7.7    1.8   -9.6
H     5.5    2.7  -10.8
I    -3.6  -11.5   -3.2
P    -7.9   -7.3   -6.4
P     1.3   10.7   -6.4
H    -4.1   10.9    4.5
N    10.4    6.4   -2.6
H     6.3    1.1   10.8
N    -2.9   -6.7  -10.2
C   -11.9    2.1   -3.4
P   -12.3   -2.8    0.0
H    11.0    5.8   -2.0
I    -1.3   12.5   -0.2
C     0.7  -12.0    3.7
H     6.8   10.4    2.3
