         400
 sphere cut out from bulk 
 P    3.3291800000000003E-002  -5.9368700000000003E-002  -1.0263899999999999     
 I    1.8552599999999999        1.3776299999999999        1.4841100000000000     
 I   -2.0861600000000000       -1.1857800000000001        1.3606100000000001     
 I    2.0381999999999998       -2.7541300000000000      -0.36487100000000000     
 I   -2.1055799999999998        2.5832899999999999      -0.99533899999999997     
 I    1.8550100000000000       0.75273000000000001       -2.9788800000000002     
 H   -1.0433300000000001        2.0170699999999999        2.8716800000000000     
 H    2.4876499999999999       -1.6982299999999999        2.1410600000000000     
 I   -2.0931199999999999       -1.8443200000000000       -2.8547099999999999     
 H   0.48707600000000001       -1.8970800000000001        3.5042100000000000     
 P   -4.0203600000000002        4.4789000000000002E-002  -1.0545400000000000     
 P    4.1017999999999999        4.4789000000000002E-002  -1.0545400000000000     
 H   -2.1192500000000001       -3.5919599999999998      -0.89615199999999995     
 N    2.5741700000000001       -1.8004899999999999        3.1726600000000000     
 H    2.6802600000000001      -0.85570500000000005        3.5958999999999999     
 C    1.3762099999999999       -2.4923199999999999        3.7337899999999999     
 C   -1.5026400000000000        2.3437100000000002        3.8091800000000000     
 H   -1.7615799999999999        1.0007800000000000       -4.3733800000000000     
 H   0.18571699999999999        2.4252899999999999       -4.1747800000000002     
 H   -1.1363200000000000        3.1723900000000000       -3.4936199999999999     
 H    1.2992699999999999       -3.4831699999999999        3.2775900000000000     
 H   -1.6291700000000000        1.4912799999999999        4.4838500000000003     
 H    2.8379699999999999        4.1296600000000003      -0.86742200000000003     
 H   -2.4691800000000002        2.8197399999999999        3.6161799999999999     
 H   -2.6750200000000000       -4.4404500000000002       0.65138600000000002     
 H    1.3638800000000000       -3.0765300000000000       -4.0402300000000002     
 N   -2.2746499999999998       -4.7615999999999996      -0.25207099999999999     
 N  -0.73594099999999996        2.8512300000000002       -4.3970799999999999     
 H    3.4336099999999998       -2.3508399999999998        3.3464299999999998     
 H   -1.3529899999999999       -5.1875499999999999       -2.9774599999999998E-002
 H   0.31813000000000002        2.9157799999999998        4.6824399999999997     
 N  -0.60352700000000004        3.3417200000000000        4.4601499999999996     
 C   -1.6350499999999999        1.8532200000000001       -5.0480400000000003     
 H    3.0261200000000001        4.6860200000000001       0.69759000000000004     
 H    1.4963000000000000       -2.5860400000000001        4.8170000000000002     
 H  -0.45700900000000000        4.1705899999999998        3.8416700000000001     
 H   0.35466300000000001       -2.3875700000000002       -5.3530100000000003     
 C    2.9149200000000000        5.1205100000000003      -0.41121500000000000     
 H    2.5478499999999999       -1.3462000000000001       -5.2613200000000004     
 C    1.2438000000000000       -2.9828199999999998       -5.1234299999999999     
 H    2.0257800000000001        5.7157600000000004      -0.64079500000000000     
 H   -3.1498300000000001        5.2619899999999999      -0.79858200000000001     
 H   -4.6885399999999997       -2.3508399999999998        3.3464299999999998     
 I  -0.43087700000000001        5.9182300000000003        1.8831100000000001     
 H  -0.58942200000000000        3.6800999999999999       -5.0155599999999998     
 H   -5.6345000000000001       -1.6982299999999999        2.1410600000000000     
 H   -1.1757500000000001        1.5265800000000000       -5.9855400000000003     
 H   -2.6015899999999998        2.3292400000000000       -5.2410500000000004     
 I    6.0359999999999996       -1.1857800000000001        1.3606100000000001     
 I    1.9874200000000000        1.2432200000000000        5.8783500000000002     
 C   -3.1648800000000001       -5.4188400000000003      -0.92863600000000002     
 H    3.9907400000000002       -4.9428099999999997       -1.1216400000000000     
 I   -1.9607000000000001       -1.3538300000000001        6.0025199999999996     
 H   -4.1314200000000003       -4.9428099999999997       -1.1216400000000000     
 H   -1.0039000000000000        3.6628799999999999        5.3635999999999999     
 H   -5.4419000000000004      -0.85570500000000005        3.5958999999999999     
 I   -6.2668999999999997        1.3776299999999999        1.4841100000000000     
 N    2.4417499999999999       -2.2909899999999999       -5.6845600000000003     
 H   -2.7055699999999998       -5.7454799999999997       -1.8661300000000001     
 I    6.0165699999999998        2.5832899999999999      -0.99533899999999997     
 N   -5.5479900000000004       -1.8004899999999999        3.1726600000000000     
 I   -6.0839600000000003       -2.7541300000000000      -0.36487100000000000     
 H   -5.2841800000000001        4.1296600000000003      -0.86742200000000003     
 I    6.0290400000000002       -1.8443200000000000       -2.8547099999999999     
 H    1.1668499999999999       -3.9736699999999998       -5.5796400000000004     
 H   -5.0960299999999998        4.6860200000000001       0.69759000000000004     
 I   -3.6442899999999998       -5.0295399999999999        3.1496700000000000     
 I   0.31629900000000000       -6.8601000000000001        1.1661300000000001     
 I   -6.2671500000000000       0.75273000000000001       -2.9788800000000002     
 H    3.3012000000000001       -2.8413300000000001       -5.5107999999999997     
 I  -0.54744999999999999        6.4270600000000000       -2.7844000000000002     
 H    6.0029100000000000       -3.5919599999999998      -0.89615199999999995     
 H    5.4471299999999996       -4.4404500000000002       0.65138600000000002     
 N   -4.0092800000000004        5.8123399999999998      -0.97234399999999999     
 I   0.19302000000000000       -6.3849200000000002       -3.2536999999999998     
 N    4.1128700000000000        5.8123399999999998      -0.97234399999999999     
 H    5.6529800000000003        2.8197399999999999        3.6161799999999999     
 H    4.9723199999999999        5.2619899999999999      -0.79858200000000001     
 C   -5.2072300000000000        5.1205100000000003      -0.41121500000000000     
 H   -3.3002899999999999       -6.6120500000000000      -0.22837099999999999     
 C    4.9572799999999999       -5.4188400000000003      -0.92863600000000002     
 H    4.0263600000000004        5.9146000000000001       -2.0039500000000001     
 I    4.4778599999999997       -5.0295399999999999        3.1496700000000000     
 H    2.3552399999999998       -2.1887300000000001       -6.7161700000000000     
 H   -4.0957900000000000        5.9146000000000001       -2.0039500000000001     
 I    3.5769099999999998        4.8587100000000003       -4.5098799999999999     
 N    5.8475099999999998       -4.7615999999999996      -0.25207099999999999     
 I    1.7228399999999999       0.88713900000000001       -7.3731099999999996     
 H   -5.5743099999999997       -1.3462000000000001       -5.2613200000000004     
 H    6.3605700000000001        1.0007800000000000       -4.3733800000000000     
 H   -3.9031899999999999        6.7571300000000001      -0.54910700000000001     
 I    3.7093200000000000        5.3491999999999997        4.3473499999999996     
 P   0.16570499999999999       0.43112600000000001        7.8308299999999997     
 H   -4.8209600000000004       -2.8413300000000001       -5.5107999999999997     
 H    7.0788200000000003        2.0170699999999999        2.8716800000000000     
 H    5.5205599999999997        2.3292400000000000       -5.2410500000000004     
 H    4.2189699999999997        6.7571300000000001      -0.54910700000000001     
 C    6.6195199999999996        2.3437100000000002        3.8091800000000000     
 I   -2.2185700000000002       -1.6762699999999999       -7.4966200000000001     
 H    6.4929899999999998        1.4912799999999999        4.4838500000000003     
 I   -4.5452500000000002        4.8587100000000003       -4.5098799999999999     
 C   -6.7459400000000000       -2.4923199999999999        3.7337899999999999     
 H    5.4165799999999997       -5.7454799999999997       -1.8661300000000001     
 I   0.32543299999999997       -5.8944200000000002        5.6035199999999996     
 P   -8.0888600000000004       -5.9368700000000003E-002  -1.0263899999999999     
 I   -4.4128400000000001        5.3491999999999997        4.3473499999999996     
 H    4.8218600000000000       -6.6120500000000000      -0.22837099999999999     
 P    8.1554500000000001       -5.9368700000000003E-002  -1.0263899999999999     
 H   -6.8228900000000001       -3.4831699999999999        3.2775900000000000     
 N   -5.6803999999999997       -2.2909899999999999       -5.6845600000000003     
 H   -6.0963700000000003        5.7157600000000004      -0.64079500000000000     
 C    6.4870999999999999        1.8532200000000001       -5.0480400000000003     
 H    6.9858399999999996        3.1723900000000000       -3.4936199999999999     
 H   -6.7582700000000004       -3.0765300000000000       -4.0402300000000002     
 H    6.7691600000000003       -5.1875499999999999       -2.9774599999999998E-002
 I   -6.1347300000000002        1.2432200000000000        5.8783500000000002     
 H   -6.6258600000000003       -2.5860400000000001        4.8170000000000002     
 H   -7.6350800000000003       -1.8970800000000001        3.5042100000000000     
 H   0.85099300000000000       -8.5691000000000006      -0.54910700000000001     
 P   -1.6724399999999999       -7.6230399999999996        3.7114199999999999     
 I   -1.9731700000000001        3.0737899999999998        7.8618899999999998     
 I    6.1614500000000003       -1.3538300000000001        6.0025199999999996     
 P    2.3960599999999999       -7.5188899999999999        3.6832799999999999     
 P    1.6955300000000000        7.7031799999999997        3.7114199999999999     
 H    6.7684200000000000E-002   8.7141800000000007      -0.22837099999999999     
 P   -3.8879400000000000       0.53528399999999998        7.8026900000000001     
 H   -1.9868300000000001       -3.1014699999999999        7.9610700000000003     
 I   -3.7767100000000000       -5.5200399999999998       -5.7075600000000000     
 I  -0.56328999999999996        5.4277300000000004       -6.9741200000000001     
 P    4.2342100000000000       0.53528399999999998        7.8026900000000001     
 P   -2.3581200000000000        7.8073399999999999        3.6832799999999999     
 P    1.5631200000000001        7.2126900000000003       -5.1458000000000004     
 I    4.3454499999999996       -5.5200399999999998       -5.7075600000000000     
 I    2.1706099999999999       -2.2636300000000000        8.4923599999999997     
 N    7.3862100000000002        2.8512300000000002       -4.3970799999999999     
 C   -6.8783599999999998       -2.9828199999999998       -5.1234299999999999     
 H   -2.5731600000000001       -5.2549900000000003        6.9910899999999998     
 H   -5.7669100000000002       -2.1887300000000001       -6.7161700000000000     
 I  -0.41503699999999999        6.9175500000000003        6.0728299999999997     
 H   -7.9364400000000002        2.4252899999999999       -4.1747800000000002     
 H    6.9464100000000002        1.5265800000000000       -5.9855400000000003     
 P   -2.4905300000000001        7.3168499999999996       -5.1739499999999996     
 I    3.6842700000000002        8.4661200000000001        1.1661300000000001     
 N    7.5186299999999999        3.3417200000000000        4.4601499999999996     
 H    8.6092300000000002       -1.8970800000000001        3.5042100000000000     
 H    7.6651499999999997        4.1705899999999998        3.8416700000000001     
 H   -7.8040200000000004        2.9157799999999998        4.6824399999999997     
 N   0.74490000000000001       -9.5138900000000000      -0.97234399999999999     
 H    8.3078699999999994        2.4252899999999999       -4.1747800000000002     
 H    2.8937100000000000        4.1955200000000001       -8.1596399999999996     
 I   -4.4378799999999998        8.4661200000000001        1.1661300000000001     
 H    7.1182499999999997        3.6628799999999999        5.3635999999999999     
 H   0.65838799999999997       -9.4116300000000006       -2.0039500000000001     
 I    5.9035799999999998       -1.6762699999999999       -7.4966200000000001     
 H    2.9703900000000001        4.6201499999999998        7.9897999999999998     
 H   -1.3421900000000000       -9.6104699999999994      -0.64079500000000000     
 H   -7.7674899999999996       -2.3875700000000002       -5.3530100000000003     
 H   -6.9553000000000003       -3.9736699999999998       -5.5796400000000004     
 H    7.5327299999999999        3.6800999999999999       -5.0155599999999998     
 P   -1.8048599999999999       -8.1135400000000004       -5.1458000000000004     
 H   -3.9990000000000001       -4.4523200000000003        7.7355900000000002     
 H   0.66240299999999996        9.5807500000000001       -1.8661300000000001     
 P    2.2636500000000002       -8.0093800000000002       -5.1739499999999996     
 I   -6.3993099999999998       0.88713900000000001       -7.3731099999999996     
 H   -9.1654900000000001        2.0170699999999999        2.8716800000000000     
 C   -3.0324599999999999       -4.9283500000000000        7.9285899999999998     
 H    4.1231499999999999       -4.4523200000000003        7.7355900000000002     
 N   -2.1422400000000001       -4.2711100000000002        8.6051500000000001     
 I    7.6912799999999999        5.9182300000000003        1.8831100000000001     
 P   -9.9121500000000001E-002 -0.54986400000000002       -9.8836200000000005     
 C   0.20309900000000000        9.9073899999999995      -0.92863600000000002     
 I    1.9057800000000000       -3.2446199999999998       -9.2220999999999993     
 H   -2.8074400000000002       -4.9309399999999997       -8.2058400000000002     
 H   -1.2205800000000000       -4.6970499999999999        8.8274500000000007     
 H    8.4402799999999996        2.9157799999999998        4.6824399999999997     
 I   -3.9154300000000002       -8.8991699999999998       -2.7844000000000002     
 P   -5.7260900000000001       -7.5188899999999999        3.6832799999999999     
 I    3.5609899999999999        8.9413099999999996       -3.2536999999999998     
 I    9.9774100000000008        1.3776299999999999        1.4841100000000000     
 H   -3.9633799999999999        6.4050900000000004        6.8532799999999998     
 H    1.6043499999999999       -10.064200000000000      -0.79858200000000001     
 C  -0.45305400000000001       -10.205700000000000      -0.41121500000000000     
 I    4.2067300000000003       -8.8991699999999998       -2.7844000000000002     
 H    4.1587800000000001        6.4050900000000004        6.8532799999999998     
 H   -8.5791599999999999        4.1705899999999998        3.8416700000000001     
 N   -8.8581000000000003        2.8512300000000002       -4.3970799999999999     
 H    8.4768200000000000       -2.3875700000000002       -5.3530100000000003     
 I    7.5747000000000000        6.4270600000000000       -2.7844000000000002     
 I   -2.2380000000000000        2.0928000000000000       -9.8525600000000004     
 I   -3.7988499999999998       -9.4079999999999995        1.8831100000000001     
 H    2.0149800000000000        10.138700000000000       -2.9774599999999998E-002
 H   -3.0174200000000000        5.7524899999999999        8.0586400000000005     
 N   -8.7256800000000005        3.3417200000000000        4.4601499999999996     
 H    5.5490000000000004       -5.2549900000000003        6.9910899999999998     
 I   -10.208299999999999       -1.1857800000000001        1.3606100000000001     
 P    5.7640399999999996        7.8073399999999999        3.6832799999999999     
 H   -9.2584700000000009        3.1723900000000000       -3.4936199999999999     
 I   -1.9537500000000001      -0.69528199999999996        10.217800000000000     
 I    9.9771599999999996       0.75273000000000001       -2.9788800000000002     
 I    6.1489799999999999        3.0737899999999998        7.8618899999999998     
 I   -7.8058600000000000       -6.8601000000000001        1.1661300000000001     
 H  -0.76344199999999995        10.383400000000000       -1.1216400000000000     
 C    9.4983699999999995       -2.4923199999999999        3.7337899999999999     
 H    6.1353200000000001       -3.1014699999999999        7.9610700000000003     
 H    2.1581999999999999        6.2062499999999998        8.2164300000000008     
 I    4.3232999999999997       -9.4079999999999995        1.8831100000000001     
 I    10.160399999999999       -2.7541300000000000      -0.36487100000000000     
 I   -4.5611600000000001        8.9413099999999996       -3.2536999999999998     
 H   -5.2284499999999996        4.1955200000000001       -8.1596399999999996     
 H    9.4214199999999995       -3.4831699999999999        3.2775900000000000     
 H   -5.1517700000000000        4.6201499999999998        7.9897999999999998     
 I   -8.5530299999999997        5.9182300000000003        1.8831100000000001     
 P    5.6316199999999998        7.3168499999999996       -5.1739499999999996     
 C    3.0473300000000001        5.6110100000000003        8.4460099999999994     
 I   -10.227700000000000        2.5832899999999999      -0.99533899999999997     
 H   -2.5426099999999998       -3.9499499999999999        9.5086099999999991     
 C   -9.6247900000000008        2.3437100000000002        3.8091800000000000     
 I   -5.9515399999999996       -2.2636300000000000        8.4923599999999997     
 N    1.0933299999999999        10.564600000000000      -0.25207099999999999     
 C    5.0896900000000000       -4.9283500000000000        7.9285899999999998     
 I   0.18388599999999999       -7.3506000000000000       -7.6910999999999996     
 H   -1.4854099999999999       -5.6780400000000002       -8.8870000000000005     
 P    6.4497099999999996       -7.6230399999999996        3.7114199999999999     
 H  -0.34185300000000002       -10.640200000000000       0.69759000000000004     
 P    3.9693900000000002      -0.44570599999999999       -9.9117700000000006     
 I   -7.9291400000000003       -6.3849200000000002       -3.2536999999999998     
 I    1.9876700000000000        1.8681300000000001        10.341300000000000     
 P   -6.4266199999999998        7.7031799999999997        3.7114199999999999     
 H   -8.7115799999999997        3.6800999999999999       -5.0155599999999998     
 C    2.7825099999999998        4.6300200000000000       -9.2684400000000000     
 H    2.7055600000000002        3.6391600000000000       -9.7246500000000005     
 P   -4.1527700000000003      -0.44570599999999999       -9.9117700000000006     
 H    9.4860399999999991       -3.0765300000000000       -4.0402300000000002     
 I   -10.215299999999999       -1.8443200000000000       -2.8547099999999999     
 I  -0.27631800000000001        10.296700000000000        3.1496700000000000     
 N   -2.4070600000000000       -5.2521000000000004       -9.1092999999999993     
 H   -9.4751499999999993       -5.1875499999999999       -2.9774599999999998E-002
 H   -2.2516600000000002       -4.0824600000000002       -9.7533799999999999     
 N   -3.8768699999999998        6.3028399999999998        7.8848799999999999     
 H   -9.7513199999999998        1.4912799999999999        4.4838500000000003     
 H   -9.8837399999999995        1.0007800000000000       -4.3733800000000000     
 I   0.34134399999999998       -9.9770199999999996        4.3473499999999996     
 H   -10.241400000000001       -3.5919599999999998      -0.89615199999999995     
 H   0.69295099999999998        10.885800000000000       0.65138600000000002     
 I    8.4384499999999996       -6.8601000000000001        1.1661300000000001     
 H    5.3147200000000003       -4.9309399999999997       -8.2058400000000002     
 N    4.2452899999999998        6.3028399999999998        7.8848799999999999     
 H    10.609800000000000       -1.6982299999999999        2.1410600000000000     
 I    8.3151700000000002       -6.3849200000000002       -3.2536999999999998     
 H    1.8933700000000000        5.2252599999999996       -9.4980200000000004     
 P   -6.5590400000000004        7.2126900000000003       -5.1458000000000004     
 I   -3.7830100000000000       -8.4086800000000004        6.0728299999999997     
 H   -3.1678799999999998       -6.1215500000000000        8.6288499999999999     
 H    9.6184499999999993       -2.5860400000000001        4.8170000000000002     
 C    9.3659499999999998       -2.9828199999999998       -5.1234299999999999     
 H    5.1047300000000000        5.7524899999999999        8.0586400000000005     
 C   -9.7572100000000006        1.8532200000000001       -5.0480400000000003     
 I   -8.6696100000000005        6.4270600000000000       -2.7844000000000002     
 H   -9.2979000000000003        1.5265800000000000       -5.9855400000000003     
 P   -7.9564500000000002       0.43112600000000001        7.8308299999999997     
 P   -5.8585099999999999       -8.0093800000000002       -5.1739499999999996     
 H   -9.1260600000000007        3.6628799999999999        5.3635999999999999     
 H  -0.53000100000000006       -11.196600000000000      -0.86742200000000003     
 I    4.3391400000000004       -8.4086800000000004        6.0728299999999997     
 H   -7.2711600000000001       -8.5691000000000006      -0.54910700000000001     
 H   -3.2822499999999999        4.7714999999999996       -9.6558100000000007     
 I   -7.7967199999999997       -5.8944200000000002        5.6035199999999996     
 H   0.79080099999999998       -8.9211299999999998        6.8532799999999998     
 N    10.696300000000001       -1.8004899999999999        3.1726600000000000     
 N    5.9799199999999999       -4.2711100000000002        8.6051500000000001     
 H    3.1585399999999999        5.1765100000000004        9.5548199999999994     
 C   -5.0748199999999999        5.6110100000000003        8.4460099999999994     
 I  -0.40873100000000001        9.8061900000000009       -5.7075600000000000     
 H    2.6200700000000001       -1.2077400000000000        10.998300000000000     
 I   0.20893100000000001       -10.467499999999999       -4.5098799999999999     
 P    8.2878600000000002       0.43112600000000001        7.8308299999999997     
 H    10.802400000000000      -0.85570500000000005        3.5958999999999999     
 N   -10.396800000000001       -4.7615999999999996      -0.25207099999999999     
 P    6.3173000000000004       -8.1135400000000004       -5.1458000000000004     
 H   -10.591300000000000        2.8197399999999999        3.6161799999999999     
 H    9.2890099999999993       -3.9736699999999998       -5.5796400000000004     
 I    3.6934100000000001        9.4318000000000008        5.6035199999999996     
 I   -6.2163700000000004       -3.2446199999999998       -9.2220999999999993     
 I    7.5588600000000001        5.4277300000000004       -6.9741200000000001     
 H   0.98340600000000000       -8.0785999999999998        8.3081200000000006     
 I    3.5518600000000000        7.9756299999999998       -7.6910999999999996     
 H   -3.7707700000000002        7.2476200000000004        8.3081200000000006     
 C   -5.3396499999999998        4.6300200000000000       -9.2684400000000000     
 H    10.147900000000000        5.7157600000000004      -0.64079500000000000     
 I    5.8841599999999996        2.0928000000000000       -9.8525600000000004     
 H    4.9542799999999998       -6.1215500000000000        8.6288499999999999     
 H   -10.797200000000000       -4.4404500000000002       0.65138600000000002     
 H    5.5795399999999997       -3.9499499999999999        9.5086099999999991     
 H   -5.4165900000000002        3.6391600000000000       -9.7246500000000005     
 I    8.4475899999999999       -5.8944200000000002        5.6035199999999996     
 H    10.960100000000001        4.1296600000000003      -0.86742200000000003     
 I    10.109600000000000        1.2432200000000000        5.8783500000000002     
 H    6.7799600000000000       -9.6104699999999994      -0.64079500000000000     
 H    4.8399099999999997        4.7714999999999996       -9.6558100000000007     
 I   -10.082900000000000       -1.3538300000000001        6.0025199999999996     
 I   -4.4287500000000000        9.4318000000000008        5.6035199999999996     
 H    1.2487299999999999        11.734299999999999      -0.89615199999999995     
 H   -6.1071700000000000        10.138700000000000       -2.9774599999999998E-002
 H    4.3513799999999998        7.2476200000000004        8.3081200000000006     
 N    3.9804599999999999        5.3218500000000004       -9.8295700000000004     
 H   -8.0544700000000002        8.7141800000000007      -0.22837099999999999     
 I   0.44871200000000000       -6.3696099999999998        10.023400000000001     
 C   -3.2972899999999998       -5.9093400000000003       -9.7858599999999996     
 H   -5.9639600000000002        6.2062499999999998        8.2164300000000008     
 N   -4.1416899999999996        5.3218500000000004       -9.8295700000000004     
 H   -4.9636199999999997        5.1765100000000004        9.5548199999999994     
 I    6.1684099999999997      -0.69528199999999996        10.217800000000000     
 H    8.1898400000000002        8.7141800000000007      -0.22837099999999999     
 I    1.7225900000000001       0.26223500000000000       -11.836100000000000     
 N    5.7150900000000000       -5.2521000000000004       -9.1092999999999993     
 H    10.670000000000000       -1.3462000000000001       -5.2613200000000004     
 I   -4.5702900000000000        7.9756299999999998       -7.6910999999999996     
 H    3.8583200000000000       -5.4333099999999996       -9.9788599999999992     
 H   -4.0355999999999996        6.2666300000000001       -9.4063300000000005     
 I    7.7071199999999997        6.9175500000000003        6.0728299999999997     
 N   0.87731300000000001       -9.0233899999999991        7.8848799999999999     
 H   -6.5178099999999999       -10.064200000000000      -0.79858200000000001     
 H    4.0865499999999999        6.2666300000000001       -9.4063300000000005     
 H  -0.91091999999999995        2.5075699999999999        11.728899999999999     
 H   -3.4327000000000001       -7.1025400000000003       -9.0855999999999995     
 N   -7.3772500000000001       -9.5138900000000000      -0.97234399999999999     
 H    5.8704900000000002       -4.0824600000000002       -9.7533799999999999     
 H    11.148300000000001        4.6860200000000001       0.69759000000000004     
 H   -4.2638299999999996       -5.4333099999999996       -9.9788599999999992     
 I   -2.2255300000000000       -2.3348200000000001       -11.711900000000000     
 H    6.9015800000000000       -4.6970499999999999        8.8274500000000007     
 H   -10.723699999999999        2.3292400000000000       -5.2410500000000004     
 I   -6.1344799999999999        1.8681300000000001        10.341300000000000     
 C    11.037100000000001        5.1205100000000003      -0.41121500000000000     
 H   -7.4637700000000002       -9.4116300000000006       -2.0039500000000001     
 P   -12.142500000000000        4.4789000000000002E-002  -1.0545400000000000     
 N    10.563900000000000       -2.2909899999999999       -5.6845600000000003     
 H   -6.4729099999999998E-002   8.2236799999999999       -9.0855999999999995     
 H    11.555800000000000       -2.3508399999999998        3.3464299999999998     
 P    12.224000000000000        4.4789000000000002E-002  -1.0545400000000000     
 H   -7.4597499999999997        9.5807500000000001       -1.8661300000000001     
 H   0.79481700000000000        10.071199999999999        6.9910899999999998     
 I    9.8450000000000006       0.88713900000000001       -7.3731099999999996     
 H   -1.2097800000000001       -9.1199800000000000        8.2164300000000008     
 H   -5.5020899999999999       -1.2077400000000000        10.998300000000000     
 I   -8.6854499999999994        5.4277300000000004       -6.9741200000000001     
 H   -10.827700000000000       -5.7454799999999997       -1.8661300000000001     
 N    2.7065800000000002       -1.3100000000000001        12.029900000000000     
 H   -3.8249800000000000       -11.155600000000000        3.8416700000000001     
 C    4.8248699999999998       -5.9093400000000003       -9.7858599999999996     
 H    8.9731500000000004       -8.5691000000000006      -0.54910700000000001     
 H    4.6894499999999999       -7.1025400000000003       -9.0855999999999995     
 H   0.61948899999999996       -1.4065799999999999        12.361400000000000     
 H    6.6367500000000001       -5.6780400000000002       -8.8870000000000005     
 H   -11.272000000000000        5.2619899999999999      -0.79858200000000001     
 H   -6.2287800000000004        5.2252599999999996       -9.4980200000000004     
 I  -0.29846400000000001        6.4087199999999998        10.740300000000000     
 I   -8.5371900000000007        6.9175500000000003        6.0728299999999997     
 C   -11.287000000000001       -5.4188400000000003      -0.92863600000000002     
 H    4.2971700000000004       -11.155600000000000        3.8416700000000001     
 H    1.4316800000000001       -2.9926800000000000        12.134800000000000     
 H   0.20009700000000000        9.2046700000000001        8.6288499999999999     
 H    1.7367600000000001       -9.5737400000000008        8.0586400000000005     
 H    10.477399999999999       -2.1887300000000001       -6.7161700000000000     
 N   -7.0288300000000001        10.564600000000000      -0.25207099999999999     
 H   -1.2687299999999999        2.6818900000000001       -12.350800000000000     
 C   -7.9190600000000000        9.9073899999999995      -0.92863600000000002     
 H   -2.8379799999999999       -6.2359799999999996       -10.723400000000000     
 I   -3.9312700000000000       -9.8985000000000003       -6.9741200000000001     
 P    8.0230300000000003      -0.54986400000000002       -9.8836200000000005     
 H    3.8939499999999998        5.4241000000000001       -10.861200000000000     
 H   -3.4549099999999999        11.843100000000000        3.2775900000000000     
 H    2.8126699999999998      -0.36520999999999998        12.453099999999999     
 C    7.6691000000000003       -10.205700000000000      -0.41121500000000000     
 H    7.3587100000000003        10.383400000000000       -1.1216400000000000     
 I    4.1908899999999996       -9.8985000000000003       -6.9741200000000001     
 C    1.5086299999999999       -2.0018300000000000        12.590999999999999     
 H    3.5660300000000000       -1.8603400000000001        12.203700000000000     
 H   -4.2282099999999998        5.4241000000000001       -10.861200000000000     
 I   -2.7159800000000001        12.572100000000001      -0.36487100000000000     
 P   -8.2212800000000001      -0.54986400000000002       -9.8836200000000005     
 C  -0.32063999999999998       -9.7152200000000004        8.4460099999999994     
 I   -10.340700000000000       -1.6762699999999999       -7.4966200000000001     
 P   -9.7946000000000009       -7.6230399999999996        3.7114199999999999     
 C    8.3252500000000005        9.9073899999999995      -0.92863600000000002     
 H    11.423400000000001       -2.8413300000000001       -5.5107999999999997     
 P    9.8176799999999993        7.7031799999999997        3.7114199999999999     
 H    8.7805400000000002       -9.4116300000000006       -2.0039500000000001     
 N    8.8670500000000008       -9.5138900000000000      -0.97234399999999999     
 C   -1.3702200000000000        2.8342100000000001        12.666399999999999     
 I    2.6486000000000001       -12.742900000000001      -0.99533899999999997     
 H   0.71858000000000000       -9.0595900000000000       -9.4063300000000005     
 C   0.33551199999999998        10.397900000000000        7.9285899999999998     
 I  -0.67986400000000002        5.9365600000000001       -11.641600000000000     
 H   -2.3367700000000000        3.3102299999999998        12.473400000000000     
 P    9.6852699999999992        7.2126900000000003       -5.1458000000000004     
 H    12.112900000000000       -4.9428099999999997       -1.1216400000000000     
 H    8.7845600000000008        9.5807500000000001       -1.8661300000000001     
 H    4.6672399999999996        11.843100000000000        3.2775900000000000     
 H   -3.5873300000000001        11.352600000000001       -5.5796400000000004     
